    9

Pd      0.6152879999999999   -0.7860540000000000   -1.6718560000000000
O       1.9946090000000001   -2.1634180000000001   -1.7749320000000000
O      -0.6922790000000000    0.5380779999999999   -1.3939509999999999
O      -1.9721160000000000    2.1639659999999998    1.8555189999999999
Pd      1.2660760000000000   -1.2030620000000001    0.6145720000000000
O       2.3642129999999999   -2.3992580000000001   -0.4593270000000000
O       0.1499040000000000   -0.0030550000000000    1.5297540000000001
Pd     -1.0898930000000000    1.1240800000000000    0.4389040000000000
O      -2.6358039999999998    2.7287230000000000    0.8613170000000000
