433

C -0.01917266666666695 0.2260006666666663 0.0
O 1.6741253333333326 0.027347666666666548 0.0
O -1.6549526666666674 -0.25334833333333373 0.0
@c -0.01917266666666695 0.467086080845338 1.9855170190835179
@c 0.18961342649395582 0.10545795957733052 1.9855170190835179
@c -0.22795875982728966 0.10545795957733035 1.9855170190835179
@c -0.01917266666666695 0.9352459012404418 1.8701259869950984
@c 0.4367213823465791 0.7693140374205232 1.8701259869950984
@c 0.22340349011530342 -0.44047184658988126 1.8701259869950984
@c -0.26174882344863715 -0.44047184658988126 1.8701259869950984
@c -0.4750667156799132 0.769314037420523 1.8701259869950984
@c -0.01917266666666695 1.3621869666036512 1.6460500301739023
@c 0.47380009348413543 1.24966915104713 1.6460500301739023
@c -0.01917266666666681 -0.9101856332703187 1.6460500301739023
@c -0.5121454268174686 1.2496691510471303 1.6460500301739023
@c -0.01917266666666695 1.7230970140836857 1.3263116287474148
@c 0.4928644406492372 1.6328110569399763 1.3263116287474148
@c -0.019172666666666765 -1.271095680750353 1.3263116287474148
@c -0.981487649293302 1.3728430044191926 1.3263116287474148
@c -0.5312097739825709 1.6328110569399763 1.3263116287474148
@c -0.01917266666666695 1.9970012635756516 0.9294928164047417
@c 0.47977585966819963 1.9252632956679185 0.9294928164047417
@c -0.019172666666665946 -1.544999930242319 0.9294928164047417
@c -0.9766478770938919 1.715861175462481 0.9294928164047417
@c -0.5181211930015337 1.9252632956679185 0.9294928164047417
@c -0.01917266666666695 2.1679813957005134 0.4786552601415449
@c 0.48344893122937027 2.101810006996132 0.4786552601415449
@c -0.01917266666666671 -1.7159800623671806 0.4786552601415449
@c -0.9901630311835913 1.9078053116698015 0.4786552601415449
@c -0.5217942645627058 2.101810006996132 0.4786552601415449
@c -0.01917266666666695 2.2261006666666665 -3.216406111618241e-16
@c 0.4984913054428849 2.157948911827432 -3.216406111618241e-16
@c -0.019172666666666702 -1.774099333333334 -3.216406111618241e-16
@c -1.019222666666668 1.9581380767759218 -3.216406111618241e-16
@c -0.5368366387762205 2.1579489118274315 -3.216406111618241e-16
@c -0.01917266666666695 2.1679813957005134 -0.4786552601415438
@c 0.4834489312293704 2.101810006996132 -0.4786552601415438
@c -0.01917266666666671 -1.7159800623671808 -0.4786552601415438
@c -0.9901630311835914 1.9078053116698017 -0.4786552601415438
@c -0.5217942645627058 2.101810006996132 -0.4786552601415438
@c -0.01917266666666695 1.9970012635756516 -0.9294928164047415
@c 0.47977585966819963 1.9252632956679185 -0.9294928164047415
@c -0.019172666666665946 -1.544999930242319 -0.9294928164047415
@c -0.9766478770938919 1.715861175462481 -0.9294928164047415
@c -0.5181211930015337 1.9252632956679185 -0.9294928164047415
@c -0.01917266666666695 1.723097014083686 -1.3263116287474142
@c 0.4928644406492373 1.6328110569399767 -1.3263116287474142
@c -0.019172666666666765 -1.2710956807503535 -1.3263116287474142
@c -0.9814876492933023 1.372843004419193 -1.3263116287474142
@c -0.5312097739825711 1.6328110569399767 -1.3263116287474142
@c -0.01917266666666695 1.3621869666036512 -1.6460500301739023
@c 0.47380009348413543 1.24966915104713 -1.6460500301739023
@c -0.01917266666666681 -0.9101856332703187 -1.6460500301739023
@c -0.5121454268174686 1.2496691510471303 -1.6460500301739023
@c -0.01917266666666695 0.9352459012404423 -1.8701259869950981
@c 0.43672138234657937 0.7693140374205235 -1.8701259869950981
@c 0.22340349011530355 -0.4404718465898816 -1.8701259869950981
@c -0.26174882344863726 -0.4404718465898817 -1.8701259869950981
@c -0.4750667156799135 0.7693140374205233 -1.8701259869950981
@c -0.01917266666666695 0.467086080845338 -1.9855170190835179
@c 0.18961342649395588 0.10545795957733049 -1.9855170190835179
@c -0.22795875982728972 0.10545795957733033 -1.9855170190835179
@a 1.6741253333333326 0.2736807105415542 2.1862662329861235
@a 1.887456007120532 -0.09581885527077721 2.1862662329861235
@b 1.4607946595461332 -0.09581885527077738 2.1862662329861235
@a 1.6741253333333326 0.7539946308742298 2.0766377150114397
@a 2.1412049985422925 0.5839915357071452 2.0766377150114397
@d 2.3897328973877254 0.1535285878085171 2.0766377150114397
@d 2.303420063919924 -0.3359758154371149 2.0766377150114397
@a 1.9226532321787655 -0.6554771235156627 2.0766377150114397
@b 1.4255974344878997 -0.6554771235156628 2.0766377150114397
@b 1.044830602746741 -0.3359758154371154 2.0766377150114397
@b 0.9585177692789397 0.1535285878085168 2.0766377150114397
@b 1.2070456681243724 0.5839915357071451 2.0766377150114397
@a 1.6741253333333326 1.1978714382080586 1.8628779107221485
@a 2.1502202428105033 1.096674341220991 1.8628779107221485
@d 2.5439940172526017 0.810580947675616 1.8628779107221485
@d 2.787359593736153 0.3890594043928152 1.8628779107221485
@d 2.8382368531802977 -0.0950053843908129 1.8628779107221485
@d 2.687828655221751 -0.5579142191040293 1.8628779107221485
@d 2.362141943703127 -0.9196259568301781 1.8628779107221485
@a 1.917490909816884 -1.1175973520684315 1.8628779107221485
@b 1.4307597568497814 -1.1175973520684315 1.8628779107221485
@b 0.9861087229635384 -0.9196259568301782 1.8628779107221485
@c 0.6604220114449144 -0.55791421910403 1.8628779107221485
@c 0.8042566494140636 0.8105809476756162 1.8628779107221485
@b 1.1980304238561619 1.096674341220991 1.8628779107221485
@a 1.6741253333333326 1.5830532959551902 1.5557056292885236
@a 2.179262125402054 1.4987608738584879 1.5557056292885236
@d 2.6296595080452234 1.2550179994342492 1.5557056292885236
@d 2.9765099362179965 0.8782379951867156 1.5557056292885236
@e 3.1822267840889404 0.4092508209202434 1.5557056292885236
@e 3.2245174391654583 -0.10112148594760251 1.5557056292885236
@e 3.0987990527628835 -0.5975721667254019 1.5557056292885236
@d 2.8186951627696906 -1.0263030869248768 1.5557056292885236
@d 2.4145593719263054 -1.3408545988967628 1.5557056292885236
@a 1.9301860639835087 -1.507140165549314 1.5557056292885236
@b 1.418064602683157 -1.5071401655493142 1.5557056292885236
@b 0.9336912947403606 -1.3408545988967633 1.5557056292885236
@c 0.5295555038969748 -1.0263030869248773 1.5557056292885236
@c 0.7185911586214425 1.2550179994342496 1.5557056292885236
@b 1.1689885412646106 1.4987608738584879 1.5557056292885236
@a 1.6741253333333326 1.8902255773888148 1.170523771541392
@a 2.1767237787059113 1.8211450111193734 1.170523771541392
@d 2.642046796620102 1.619026701888691 1.170523771541392
@e 3.035583507548371 1.2988608400626682 1.170523771541392
@e 3.3281470939518276 0.8843926629515817 1.170523771541392
@e 3.498039453016279 0.40636137918601506 1.170523771541392
@e 3.5326604456757416 -0.09977961776474875 1.170523771541392
@e 3.429442391285166 -0.5964921655978634 1.170523771541392
@e 3.1960405007475217 -1.0469373669492525 1.170523771541392
@d 2.8497651245413858 -1.4177077618843639 1.170523771541392
@d 2.4162979232155255 -1.6813050063725543 1.170523771541392
@a 1.9277871761117853 -1.818179298667288 1.170523771541392
@b 1.4204634905548812 -1.818179298667288 1.170523771541392
@b 0.9319527434511392 -1.681305006372554 1.170523771541392
@c 0.49848554212528007 -1.417707761884364 1.170523771541392
@b 1.1715268879607519 1.8211450111193728 1.170523771541392
@a 1.6741253333333326 2.1039853816781062 0.7266469642075637
@a 2.1710972675858913 2.0436420638153576 0.7266469642075637
@d 2.639186999439172 1.866119044522259 0.7266469642075637
@e 3.0511908551148093 1.581733316410205 0.7266469642075637
@e 3.3831646680940164 1.2070123442970062 0.7266469642075637
@e 3.6158153270421542 0.7637335490265672 0.7266469642075637
@e 3.7356220213118942 0.277658682927145 0.7266469642075637
@e 3.7356220213118942 -0.22296334959381164 0.7266469642075637
@e 3.6158153270421542 -0.709038215693234 0.7266469642075637
@e 3.3831646680940164 -1.1523170109636727 0.7266469642075637
@e 3.0511908551148093 -1.527037983076872 0.7266469642075637
@d 2.6391869994391732 -1.811423711188925 0.7266469642075637
@a 2.1710972675858913 -1.9889467304820245 0.7266469642075637
@a 1.674125333333332 -2.049290048344773 0.7266469642075637
@b 1.1771533990807745 -1.9889467304820245 0.7266469642075637
@c 0.7090636672274939 -1.8114237111889264 0.7266469642075637
@b 1.1771533990807739 2.0436420638153576 0.7266469642075637
@a 1.6741253333333326 2.21361389965279 0.2463330438748873
@a 2.1783130243282223 2.154682810395688 0.2463330438748873
@d 2.6553198263974576 1.9810665328999766 0.2463330438748873
@e 3.0794301793728773 1.7021247656243472 0.2463330438748873
@e 3.427780184348704 1.3328953314440153 0.2463330438748873
@e 3.681590202389653 0.8932834847271193 0.2463330438748873
@e 3.827177269726861 0.40698881391945163 0.2463330438748873
@e 3.856692749876373 -0.09977240940306195 0.2463330438748873
@e 3.76854545566353 -0.5996805565208513 0.2463330438748873
@e 3.567487430535424 -1.0657854498263948 0.2463330438748873
@e 3.264357764668641 -1.4729592538748368 0.2463330438748873
@d 2.8754982568122482 -1.7992511234969144 0.2463330438748873
@d 2.421872423687317 -2.027070579543799 0.2463330438748873
@a 1.9279353513742805 -2.144135816171135 0.2463330438748873
@b 1.4203153152923842 -2.144135816171135 0.2463330438748873
@b 0.9263782429793499 -2.0270705795437993 0.2463330438748873
@c 0.47275240985441713 -1.7992511234969149 0.2463330438748873
@b 1.1699376423384444 2.1546828103956885 0.2463330438748873
@a 1.6741253333333326 2.21361389965279 -0.24633304387488705
@a 2.1783130243282223 2.154682810395688 -0.24633304387488705
@d 2.6553198263974576 1.9810665328999766 -0.24633304387488705
@e 3.0794301793728773 1.7021247656243472 -0.24633304387488705
@e 3.427780184348704 1.3328953314440153 -0.24633304387488705
@e 3.681590202389653 0.8932834847271193 -0.24633304387488705
@e 3.827177269726861 0.40698881391945163 -0.24633304387488705
@e 3.856692749876373 -0.09977240940306195 -0.24633304387488705
@e 3.76854545566353 -0.5996805565208513 -0.24633304387488705
@e 3.567487430535424 -1.0657854498263948 -0.24633304387488705
@e 3.264357764668641 -1.4729592538748368 -0.24633304387488705
@d 2.8754982568122482 -1.7992511234969144 -0.24633304387488705
@d 2.421872423687317 -2.027070579543799 -0.24633304387488705
@a 1.9279353513742805 -2.144135816171135 -0.24633304387488705
@b 1.4203153152923842 -2.144135816171135 -0.24633304387488705
@b 0.9263782429793499 -2.0270705795437993 -0.24633304387488705
@c 0.47275240985441713 -1.7992511234969149 -0.24633304387488705
@b 1.1699376423384444 2.1546828103956885 -0.24633304387488705
@a 1.6741253333333326 2.1039853816781062 -0.7266469642075635
@a 2.1710972675858913 2.0436420638153576 -0.7266469642075635
@d 2.639186999439172 1.866119044522259 -0.7266469642075635
@e 3.0511908551148093 1.581733316410205 -0.7266469642075635
@e 3.3831646680940164 1.2070123442970062 -0.7266469642075635
@e 3.6158153270421542 0.7637335490265672 -0.7266469642075635
@e 3.7356220213118942 0.277658682927145 -0.7266469642075635
@e 3.7356220213118942 -0.22296334959381164 -0.7266469642075635
@e 3.6158153270421542 -0.709038215693234 -0.7266469642075635
@e 3.3831646680940164 -1.1523170109636727 -0.7266469642075635
@e 3.0511908551148093 -1.527037983076872 -0.7266469642075635
@d 2.6391869994391732 -1.811423711188925 -0.7266469642075635
@a 2.1710972675858913 -1.9889467304820245 -0.7266469642075635
@a 1.674125333333332 -2.049290048344773 -0.7266469642075635
@b 1.1771533990807745 -1.9889467304820245 -0.7266469642075635
@c 0.7090636672274939 -1.8114237111889264 -0.7266469642075635
@b 1.1771533990807739 2.0436420638153576 -0.7266469642075635
@a 1.6741253333333326 1.890225577388815 -1.1705237715413919
@a 2.1767237787059117 1.8211450111193737 -1.1705237715413919
@d 2.642046796620102 1.6190267018886915 -1.1705237715413919
@e 3.0355835075483713 1.2988608400626682 -1.1705237715413919
@e 3.328147093951828 0.8843926629515818 -1.1705237715413919
@e 3.498039453016279 0.4063613791860151 -1.1705237715413919
@e 3.5326604456757416 -0.09977961776474875 -1.1705237715413919
@e 3.429442391285166 -0.5964921655978636 -1.1705237715413919
@e 3.196040500747522 -1.0469373669492528 -1.1705237715413919
@d 2.8497651245413858 -1.417707761884364 -1.1705237715413919
@d 2.4162979232155255 -1.6813050063725545 -1.1705237715413919
@a 1.9277871761117853 -1.818179298667288 -1.1705237715413919
@b 1.4204634905548812 -1.8181792986672884 -1.1705237715413919
@b 0.9319527434511392 -1.6813050063725543 -1.1705237715413919
@c 0.49848554212527985 -1.4177077618843643 -1.1705237715413919
@b 1.1715268879607517 1.821145011119373 -1.1705237715413919
@a 1.6741253333333326 1.5830532959551902 -1.5557056292885234
@a 2.179262125402054 1.4987608738584879 -1.5557056292885234
@d 2.6296595080452234 1.2550179994342492 -1.5557056292885234
@d 2.9765099362179965 0.8782379951867156 -1.5557056292885234
@e 3.1822267840889404 0.4092508209202434 -1.5557056292885234
@e 3.2245174391654583 -0.10112148594760251 -1.5557056292885234
@e 3.0987990527628835 -0.5975721667254019 -1.5557056292885234
@d 2.8186951627696906 -1.0263030869248768 -1.5557056292885234
@d 2.4145593719263054 -1.3408545988967628 -1.5557056292885234
@a 1.9301860639835087 -1.507140165549314 -1.5557056292885234
@b 1.418064602683157 -1.5071401655493142 -1.5557056292885234
@b 0.9336912947403606 -1.3408545988967633 -1.5557056292885234
@c 0.5295555038969748 -1.0263030869248773 -1.5557056292885234
@c 0.7185911586214425 1.2550179994342496 -1.5557056292885234
@b 1.1689885412646106 1.4987608738584879 -1.5557056292885234
@a 1.6741253333333326 1.197871438208059 -1.8628779107221483
@a 2.1502202428105033 1.0966743412209912 -1.8628779107221483
@d 2.5439940172526017 0.8105809476756161 -1.8628779107221483
@d 2.7873595937361535 0.3890594043928153 -1.8628779107221483
@d 2.838236853180298 -0.09500538439081294 -1.8628779107221483
@d 2.687828655221751 -0.5579142191040294 -1.8628779107221483
@d 2.3621419437031275 -0.9196259568301783 -1.8628779107221483
@a 1.9174909098168842 -1.1175973520684317 -1.8628779107221483
@b 1.4307597568497814 -1.1175973520684317 -1.8628779107221483
@b 0.9861087229635381 -0.9196259568301784 -1.8628779107221483
@c 0.6604220114449144 -0.5579142191040302 -1.8628779107221483
@c 0.8042566494140635 0.8105809476756163 -1.8628779107221483
@b 1.1980304238561619 1.0966743412209912 -1.8628779107221483
@a 1.6741253333333326 0.75399463087423 -2.0766377150114397
@a 2.1412049985422925 0.5839915357071455 -2.0766377150114397
@d 2.3897328973877254 0.15352858780851716 -2.0766377150114397
@d 2.3034200639199245 -0.335975815437115 -2.0766377150114397
@a 1.9226532321787657 -0.6554771235156629 -2.0766377150114397
@b 1.4255974344878997 -0.655477123515663 -2.0766377150114397
@b 1.044830602746741 -0.3359758154371155 -2.0766377150114397
@b 0.9585177692789395 0.15352858780851683 -2.0766377150114397
@b 1.2070456681243724 0.5839915357071453 -2.0766377150114397
@a 1.6741253333333326 0.2736807105415545 -2.1862662329861235
@a 1.8874560071205322 -0.09581885527077735 -2.1862662329861235
@b 1.460794659546133 -0.09581885527077752 -2.1862662329861235
@a -1.6549526666666674 -0.007015289458446067 2.1862662329861235
@b -1.441621992879468 -0.3765148552707775 2.1862662329861235
@a -1.8682833404538668 -0.37651485527077766 2.1862662329861235
@a -1.6549526666666674 0.4732986308742295 2.0766377150114397
@b -1.1878730014577075 0.30329553570714496 2.0766377150114397
@b -0.9393451026122747 -0.12716741219148317 2.0766377150114397
@b -1.025657936080076 -0.6166718154371151 2.0766377150114397
@a -1.4064247678212345 -0.936173123515663 2.0766377150114397
@a -1.9034805655121003 -0.9361731235156631 2.0766377150114397
@d -2.284247397253259 -0.6166718154371157 2.0766377150114397
@d -2.3705602307210603 -0.12716741219148348 2.0766377150114397
@a -2.1220323318756273 0.30329553570714485 2.0766377150114397
@b -1.6549526666666674 0.9171754382080584 1.8628779107221485
@b -1.1788577571894967 0.8159783412209907 1.8628779107221485
@c -0.7850839827473983 0.5298849476756157 1.8628779107221485
@c -0.49084114681970226 -0.3757013843908132 1.8628779107221485
@c -0.641249344778249 -0.8386102191040296 1.8628779107221485
@b -0.966936056296873 -1.2003219568301784 1.8628779107221485
@a -1.411587090183116 -1.3982933520684317 1.8628779107221485
@a -1.8983182431502186 -1.3982933520684317 1.8628779107221485
@d -2.3429692770364614 -1.2003219568301784 1.8628779107221485
@d -2.6686559885550856 -0.8386102191040303 1.8628779107221485
@d -2.8190641865136326 -0.37570138439081424 1.8628779107221485
@d -2.7681869270694883 0.10836340439281467 1.8628779107221485
@d -2.5248213505859365 0.5298849476756159 1.8628779107221485
@a -2.131047576143838 0.8159783412209907 1.8628779107221485
@b -1.6549526666666674 1.30235729595519 1.5557056292885236
@b -1.1498158745979459 1.2180648738584876 1.5557056292885236
@c -0.5103828372303094 -1.306999086924877 1.5557056292885236
@b -0.9145186280736944 -1.6215505988967631 1.5557056292885236
@a -1.3988919360164913 -1.7878361655493142 1.5557056292885236
@a -1.911013397316843 -1.7878361655493145 1.5557056292885236
@d -2.3953867052596394 -1.6215505988967636 1.5557056292885236
@d -2.799522496103025 -1.3069990869248775 1.5557056292885236
@e -3.0796263860962183 -0.8782681667254016 1.5557056292885236
@e -3.205344772498793 -0.38181748594760356 1.5557056292885236
@e -3.1630541174222757 0.12855482092024245 1.5557056292885236
@d -2.957337269551332 0.5975419951867148 1.5557056292885236
@d -2.6104868413785574 0.9743219994342494 1.5557056292885236
@a -2.1600894587353894 1.2180648738584876 1.5557056292885236
@b -1.6549526666666674 1.6095295773888145 1.170523771541392
@b -1.1523542212940885 1.5404490111193732 1.170523771541392
@c -0.47931287545861445 -1.6984037618843641 1.170523771541392
@b -0.9127800767844744 -1.9620010063725546 1.170523771541392
@a -1.4012908238882147 -2.0988752986672883 1.170523771541392
@a -1.9086145094451188 -2.0988752986672883 1.170523771541392
@d -2.3971252565488608 -1.9620010063725544 1.170523771541392
@e -2.8305924578747197 -1.6984037618843644 1.170523771541392
@e -3.1768678340808565 -1.327633366949253 1.170523771541392
@e -3.4102697246185008 -0.8771881655978641 1.170523771541392
@e -3.5134877790090764 -0.38047561776474825 1.170523771541392
@e -3.478866786349614 0.1256653791860139 1.170523771541392
@e -3.308974427285163 0.6036966629515803 1.170523771541392
@d -3.0164108408817056 1.018164840062668 1.170523771541392
@d -2.622874129953437 1.3383307018886907 1.170523771541392
@a -2.157551112039248 1.5404490111193725 1.170523771541392
@b -1.6549526666666674 1.823289381678106 0.7266469642075637
@b -1.1579807324141087 1.7629460638153573 0.7266469642075637
@c -0.27788714488519073 -1.8077339830768724 0.7266469642075637
@b -0.6898910005608266 -2.0921197111889254 0.7266469642075637
@b -1.1579807324141087 -2.269642730482025 0.7266469642075637
@a -1.654952666666668 -2.3299860483447734 0.7266469642075637
@d -2.1519246009192257 -2.269642730482025 0.7266469642075637
@d -2.620014332772506 -2.0921197111889267 0.7266469642075637
@e -3.0320181884481436 -1.8077339830768726 0.7266469642075637
@e -3.363992001427351 -1.4330130109636734 0.7266469642075637
@e -3.5966426603754886 -0.9897342156932352 0.7266469642075637
@e -3.716449354645229 -0.5036593495938133 0.7266469642075637
@e -3.716449354645229 -0.003037317072854817 0.7266469642075637
@e -3.596642660375489 0.4830375490265669 0.7266469642075637
@e -3.363992001427352 0.9263163442970037 0.7266469642075637
@d -3.032018188448145 1.301037316410204 0.7266469642075637
@d -2.6200143327725067 1.585423044522259 0.7266469642075637
@a -2.151924600919226 1.7629460638153573 0.7266469642075637
@b -1.6549526666666674 1.9329178996527898 0.2463330438748873
@b -1.150764975671778 1.8739868103956878 0.2463330438748873
@c -0.4535797431877515 -2.0799471234969147 0.2463330438748873
@b -0.9072055763126833 -2.307766579543799 0.2463330438748873
@a -1.4011426486257195 -2.4248318161711353 0.2463330438748873
@d -1.9087626847076158 -2.4248318161711353 0.2463330438748873
@d -2.40269975702065 -2.3077665795437996 0.2463330438748873
@e -2.856325590145583 -2.079947123496915 0.2463330438748873
@e -3.245185098001975 -1.7536552538748373 0.2463330438748873
@e -3.5483147638687584 -1.3464814498263964 0.2463330438748873
@e -3.749372788996865 -0.8803765565208523 0.2463330438748873
@e -3.8375200832097076 -0.38046840940306326 0.2463330438748873
@e -3.808004603060196 0.12629281391945224 0.2463330438748873
@e -3.6624175357229882 0.6125874847271181 0.2463330438748873
@e -3.4086075176820394 1.0521993314440143 0.2463330438748873
@d -3.0602575127062126 1.4214287656243465 0.2463330438748873
@d -2.636147159730793 1.700370532899976 0.2463330438748873
@a -2.1591403576615553 1.8739868103956883 0.2463330438748873
@b -1.6549526666666674 1.9329178996527898 -0.24633304387488705
@b -1.150764975671778 1.8739868103956878 -0.24633304387488705
@c -0.4535797431877515 -2.0799471234969147 -0.24633304387488705
@b -0.9072055763126833 -2.307766579543799 -0.24633304387488705
@a -1.4011426486257195 -2.4248318161711353 -0.24633304387488705
@d -1.9087626847076158 -2.4248318161711353 -0.24633304387488705
@d -2.40269975702065 -2.3077665795437996 -0.24633304387488705
@e -2.856325590145583 -2.079947123496915 -0.24633304387488705
@e -3.245185098001975 -1.7536552538748373 -0.24633304387488705
@e -3.5483147638687584 -1.3464814498263964 -0.24633304387488705
@e -3.749372788996865 -0.8803765565208523 -0.24633304387488705
@e -3.8375200832097076 -0.38046840940306326 -0.24633304387488705
@e -3.808004603060196 0.12629281391945224 -0.24633304387488705
@e -3.6624175357229882 0.6125874847271181 -0.24633304387488705
@e -3.4086075176820394 1.0521993314440143 -0.24633304387488705
@d -3.0602575127062126 1.4214287656243465 -0.24633304387488705
@d -2.636147159730793 1.700370532899976 -0.24633304387488705
@a -2.1591403576615553 1.8739868103956883 -0.24633304387488705
@b -1.6549526666666674 1.823289381678106 -0.7266469642075635
@b -1.1579807324141087 1.7629460638153573 -0.7266469642075635
@c -0.27788714488519073 -1.8077339830768724 -0.7266469642075635
@b -0.6898910005608266 -2.0921197111889254 -0.7266469642075635
@b -1.1579807324141087 -2.269642730482025 -0.7266469642075635
@a -1.654952666666668 -2.3299860483447734 -0.7266469642075635
@d -2.1519246009192257 -2.269642730482025 -0.7266469642075635
@d -2.620014332772506 -2.0921197111889267 -0.7266469642075635
@e -3.0320181884481436 -1.8077339830768726 -0.7266469642075635
@e -3.363992001427351 -1.4330130109636734 -0.7266469642075635
@e -3.5966426603754886 -0.9897342156932352 -0.7266469642075635
@e -3.716449354645229 -0.5036593495938133 -0.7266469642075635
@e -3.716449354645229 -0.003037317072854817 -0.7266469642075635
@e -3.596642660375489 0.4830375490265669 -0.7266469642075635
@e -3.363992001427352 0.9263163442970037 -0.7266469642075635
@d -3.032018188448145 1.301037316410204 -0.7266469642075635
@d -2.6200143327725067 1.585423044522259 -0.7266469642075635
@a -2.151924600919226 1.7629460638153573 -0.7266469642075635
@b -1.6549526666666674 1.6095295773888147 -1.1705237715413919
@b -1.1523542212940883 1.5404490111193734 -1.1705237715413919
@c -0.47931287545861423 -1.6984037618843644 -1.1705237715413919
@b -0.9127800767844743 -1.9620010063725548 -1.1705237715413919
@a -1.4012908238882147 -2.0988752986672883 -1.1705237715413919
@a -1.9086145094451188 -2.0988752986672887 -1.1705237715413919
@d -2.3971252565488608 -1.9620010063725546 -1.1705237715413919
@e -2.83059245787472 -1.6984037618843646 -1.1705237715413919
@e -3.1768678340808565 -1.327633366949253 -1.1705237715413919
@e -3.4102697246185008 -0.8771881655978642 -1.1705237715413919
@e -3.5134877790090764 -0.38047561776474825 -1.1705237715413919
@e -3.4788667863496143 0.12566537918601395 -1.1705237715413919
@e -3.3089744272851633 0.6036966629515804 -1.1705237715413919
@d -3.016410840881706 1.018164840062668 -1.1705237715413919
@d -2.622874129953437 1.3383307018886912 -1.1705237715413919
@a -2.1575511120392483 1.5404490111193727 -1.1705237715413919
@b -1.6549526666666674 1.30235729595519 -1.5557056292885234
@b -1.1498158745979459 1.2180648738584876 -1.5557056292885234
@c -0.5103828372303094 -1.306999086924877 -1.5557056292885234
@b -0.9145186280736944 -1.6215505988967631 -1.5557056292885234
@a -1.3988919360164913 -1.7878361655493142 -1.5557056292885234
@a -1.911013397316843 -1.7878361655493145 -1.5557056292885234
@d -2.3953867052596394 -1.6215505988967636 -1.5557056292885234
@d -2.799522496103025 -1.3069990869248775 -1.5557056292885234
@e -3.0796263860962183 -0.8782681667254016 -1.5557056292885234
@e -3.205344772498793 -0.38181748594760356 -1.5557056292885234
@e -3.1630541174222757 0.12855482092024245 -1.5557056292885234
@d -2.957337269551332 0.5975419951867148 -1.5557056292885234
@d -2.6104868413785574 0.9743219994342494 -1.5557056292885234
@a -2.1600894587353894 1.2180648738584876 -1.5557056292885234
@b -1.6549526666666674 0.9171754382080588 -1.8628779107221483
@b -1.1788577571894967 0.8159783412209909 -1.8628779107221483
@c -0.7850839827473982 0.5298849476756158 -1.8628779107221483
@c -0.49084114681970203 -0.37570138439081324 -1.8628779107221483
@c -0.641249344778249 -0.8386102191040297 -1.8628779107221483
@b -0.9669360562968727 -1.2003219568301786 -1.8628779107221483
@a -1.4115870901831158 -1.398293352068432 -1.8628779107221483
@a -1.8983182431502186 -1.398293352068432 -1.8628779107221483
@d -2.342969277036462 -1.2003219568301788 -1.8628779107221483
@d -2.6686559885550856 -0.8386102191040304 -1.8628779107221483
@d -2.819064186513633 -0.37570138439081424 -1.8628779107221483
@d -2.7681869270694888 0.10836340439281478 -1.8628779107221483
@d -2.5248213505859365 0.529884947675616 -1.8628779107221483
@a -2.131047576143838 0.8159783412209909 -1.8628779107221483
@a -1.6549526666666674 0.47329863087422974 -2.0766377150114397
@b -1.1878730014577075 0.3032955357071452 -2.0766377150114397
@b -0.9393451026122744 -0.12716741219148311 -2.0766377150114397
@b -1.0256579360800755 -0.6166718154371154 -2.0766377150114397
@a -1.4064247678212343 -0.9361731235156632 -2.0766377150114397
@a -1.9034805655121003 -0.9361731235156633 -2.0766377150114397
@d -2.284247397253259 -0.6166718154371158 -2.0766377150114397
@d -2.3705602307210603 -0.12716741219148345 -2.0766377150114397
@a -2.122032331875628 0.30329553570714507 -2.0766377150114397
@a -1.6549526666666674 -0.007015289458445789 -2.1862662329861235
@b -1.4416219928794678 -0.37651485527077766 -2.1862662329861235
@a -1.868283340453867 -0.37651485527077777 -2.1862662329861235
#a -1.8682833404538668 -0.37651485527077766 2.1862662329861235
#b -1.1878730014577075 0.30329553570714496 2.0766377150114397
#c -0.4750667156799132 0.769314037420523 1.8701259869950984
#d 2.687828655221751 -0.5579142191040293 1.8628779107221485
#e -3.4788667863496143 0.12566537918601395 -1.1705237715413919