332

C -0.01917266666666695 0.2260006666666663 0.0
O 1.6741253333333326 0.027347666666666548 0.0
O -1.6549526666666674 -0.25334833333333373 0.0
@c -0.01917266666666695 0.447908246059976 1.685555408821615
@c 0.17300493438025144 0.11504687697001151 1.685555408821615
@c -0.21135026771358528 0.11504687697001137 1.685555408821615
@c -0.01917266666666695 0.8766007700305554 1.5706875932224384
@c 0.3990250186364227 0.7243892605412063 1.5706875932224384
@c 0.621543359236635 0.33897618900572224 1.5706875932224384
@c 0.5442635505512426 -0.09929938501527813 1.5706875932224384
@c 0.20334567393354538 -0.3853634495469296 1.5706875932224384
@c -0.24169100726687914 -0.3853634495469296 1.5706875932224384
@c -0.5826088838845764 -0.09929938501527857 1.5706875932224384
@c -0.6598886925699688 0.3389761890057219 1.5706875932224384
@c -0.4373703519697568 0.7243892605412061 1.5706875932224384
@c -0.01917266666666695 1.2609559721243921 1.3487800138291288
@c 0.4298776110848857 1.1584631765545161 1.3487800138291288
@e 0.7899879740874995 0.871284744999149 1.3487800138291288
@e 0.9898341484847353 0.4562998878401622 1.3487800138291288
@e 0.7899879740874997 -0.4192834116658163 1.3487800138291288
@c 0.4298776110848858 -0.7064618432211833 1.3487800138291288
@c -0.01917266666666682 -0.8089546387910596 1.3487800138291288
@c -0.46822294441821943 -0.7064618432211834 1.3487800138291288
@e -0.8283333074208333 -0.4192834116658165 1.3487800138291288
@e -1.0281794818180694 0.45629988784016107 1.3487800138291288
@c -0.8283333074208336 0.8712847449991487 1.3487800138291288
@c -0.468222944418219 1.1584631765545161 1.3487800138291288
@c -0.01917266666666695 1.5747806804957951 1.0349553054577258
@c 0.4187754878975368 1.501700059007477 1.0349553054577258
@e 0.8092651644489299 1.29037761384346 1.0349553054577258
@c 0.6227756646958151 -0.9602159516479778 1.0349553054577258
@c 0.2028292270883813 -1.104383745777375 1.0349553054577258
@c -0.2411745604217149 -1.1043837457773753 1.0349553054577258
@e -0.6611209980291481 -0.960215951647978 1.0349553054577258
@e -1.1483260807948836 0.9637134109428493 1.0349553054577258
@c -0.8476104977822633 1.2903776138434602 1.0349553054577258
@c -0.45712082123087106 1.501700059007477 1.0349553054577258
@c -0.01917266666666695 1.7966882598891047 0.6506001033638892
@c 0.4233411649710021 1.7330643761070619 0.6506001033638892
@e 0.8300051577004772 1.547347153439148 0.6506001033638892
@e 0.8300051577004777 -1.0953458201058153 0.6506001033638892
@c 0.4233411649710021 -1.2810630427737293 0.6506001033638892
@c -0.01917266666666606 -1.3446869265557722 0.6506001033638892
@c -0.46168649830433556 -1.2810630427737295 0.6506001033638892
@e -1.20621914668804 1.2545822967630649 0.6506001033638892
@c -0.8683504910338111 1.547347153439148 0.6506001033638892
@c -0.46168649830433617 1.7330643761070619 0.6506001033638892
@c -0.01917266666666695 1.9115560754882812 0.2219075793933099
@c 0.4170811747119324 1.8541221676886932 0.2219075793933099
@e 0.8236050377441404 1.68573447019245 0.2219075793933099
@e 0.8236050377441404 -1.2337331368591173 0.2219075793933099
@c 0.41708117471193284 -1.4021208343553604 0.2219075793933099
@c -0.019172666666666744 -1.4595547421549486 0.2219075793933099
@c -0.4554265080452664 -1.4021208343553606 0.2219075793933099
@e -1.2110403263100946 1.4178683263100933 0.2219075793933099
@c -0.8619503710774752 1.6857344701924495 0.2219075793933099
@c -0.4554265080452677 1.8541221676886928 0.2219075793933099
@c -0.01917266666666695 1.9115560754882812 -0.2219075793933097
@c 0.4170811747119324 1.8541221676886932 -0.2219075793933097
@e 0.8236050377441404 1.68573447019245 -0.2219075793933097
@e 0.8236050377441404 -1.2337331368591173 -0.2219075793933097
@c 0.41708117471193284 -1.4021208343553604 -0.2219075793933097
@c -0.019172666666666744 -1.4595547421549486 -0.2219075793933097
@c -0.4554265080452664 -1.4021208343553606 -0.2219075793933097
@e -1.2110403263100946 1.4178683263100933 -0.2219075793933097
@c -0.8619503710774752 1.6857344701924495 -0.2219075793933097
@c -0.4554265080452677 1.8541221676886928 -0.2219075793933097
@c -0.01917266666666695 1.796688259889105 -0.6506001033638886
@c 0.4233411649710021 1.733064376107062 -0.6506001033638886
@e 0.8300051577004774 1.547347153439148 -0.6506001033638886
@e 0.8300051577004778 -1.0953458201058153 -0.6506001033638886
@c 0.4233411649710021 -1.2810630427737295 -0.6506001033638886
@c -0.01917266666666606 -1.3446869265557724 -0.6506001033638886
@c -0.4616864983043356 -1.2810630427737295 -0.6506001033638886
@e -1.20621914668804 1.254582296763065 -0.6506001033638886
@c -0.8683504910338111 1.547347153439148 -0.6506001033638886
@c -0.46168649830433617 1.733064376107062 -0.6506001033638886
@c -0.01917266666666695 1.5747806804957951 -1.0349553054577258
@c 0.4187754878975368 1.501700059007477 -1.0349553054577258
@e 0.8092651644489299 1.29037761384346 -1.0349553054577258
@c 0.6227756646958151 -0.9602159516479778 -1.0349553054577258
@c 0.2028292270883813 -1.104383745777375 -1.0349553054577258
@c -0.2411745604217149 -1.1043837457773753 -1.0349553054577258
@e -0.6611209980291481 -0.960215951647978 -1.0349553054577258
@e -1.1483260807948836 0.9637134109428493 -1.0349553054577258
@c -0.8476104977822633 1.2903776138434602 -1.0349553054577258
@c -0.45712082123087106 1.501700059007477 -1.0349553054577258
@c -0.01917266666666695 1.2609559721243926 -1.3487800138291286
@c 0.4298776110848858 1.1584631765545166 -1.3487800138291286
@e 0.7899879740874999 0.8712847449991492 -1.3487800138291286
@e 0.9898341484847357 0.4562998878401623 -1.3487800138291286
@e 0.7899879740875 -0.4192834116658165 -1.3487800138291286
@c 0.42987761108488604 -0.7064618432211837 -1.3487800138291286
@c -0.01917266666666682 -0.80895463879106 -1.3487800138291286
@c -0.4682229444182196 -0.7064618432211839 -1.3487800138291286
@e -0.8283333074208337 -0.4192834116658166 -1.3487800138291286
@e -1.0281794818180698 0.4562998878401611 -1.3487800138291286
@c -0.8283333074208339 0.871284744999149 -1.3487800138291286
@c -0.46822294441821916 1.1584631765545166 -1.3487800138291286
@c -0.01917266666666695 0.8766007700305556 -1.5706875932224384
@c 0.3990250186364228 0.7243892605412063 -1.5706875932224384
@c 0.6215433592366352 0.33897618900572224 -1.5706875932224384
@c 0.5442635505512429 -0.09929938501527824 -1.5706875932224384
@c 0.20334567393354547 -0.3853634495469297 -1.5706875932224384
@c -0.24169100726687923 -0.3853634495469297 -1.5706875932224384
@c -0.5826088838845767 -0.09929938501527863 -1.5706875932224384
@c -0.6598886925699691 0.33897618900572196 -1.5706875932224384
@c -0.43737035196975693 0.7243892605412063 -1.5706875932224384
@c -0.01917266666666695 0.4479082460599767 -1.685555408821615
@c 0.17300493438025205 0.11504687697001115 -1.685555408821615
@c -0.21135026771358592 0.11504687697001101 -1.685555408821615
@a 1.6741253333333326 0.2436804523258873 1.5046275738032058
@a 1.8614750213856717 -0.08081872616294378 1.5046275738032058
@a 1.4867756452809935 -0.08081872616294393 1.5046275738032058
@a 1.6741253333333326 0.658820027930834 1.3827315961384035
@b 2.0800279430134414 0.5110835599963017 1.3827315961384035
@b 2.296004210519211 0.1370016914472228 1.3827315961384035
@b 2.2209964399758464 -0.2883885139654171 1.3827315961384035
@a 1.8901016008391016 -0.5660422514435248 1.3827315961384035
@a 1.4581490658275635 -0.5660422514435249 1.3827315961384035
@e 1.1272542266908192 -0.2883885139654175 1.3827315961384035
@e 1.0522464561474545 0.1370016914472225 1.3827315961384035
@e 1.2682227236532233 0.5110835599963017 1.3827315961384035
@a 1.6741253333333326 1.0228014683368944 1.148814927975908
@b 2.106036550920799 0.924220551406651 1.148814927975908
@b 2.452402454821603 0.64800296022956 1.148814927975908
@d 2.644621029869147 0.24885697632468945 1.148814927975908
@d 2.644621029869147 -0.19416164299135627 1.148814927975908
@b 2.452402454821603 -0.5933076268962268 1.148814927975908
@b 2.106036550920799 -0.8695252180733178 1.148814927975908
@a 1.6741253333333328 -0.9681061350035614 1.148814927975908
@e 1.2422141157458662 -0.869525218073318 1.148814927975908
@e 1.2422141157458666 0.9242205514066513 1.148814927975908
@a 1.6741253333333326 1.3061371619233448 0.821828106614254
@b 2.1360773813024836 1.2197833582475324 0.821828106614254
@b 2.5356402454287363 0.9723845069094575 0.821828106614254
@d 2.8188507468575796 0.5973531936666877 0.821828106614254
@d 2.947459738047484 0.14533947549290427 0.821828106614254
@d 2.904097862091232 -0.3226096902780457 0.821828106614254
@d 2.6946213806131643 -0.7432951758129546 0.821828106614254
@b 2.347321253186148 -1.0599010751915852 0.821828106614254
@a 1.9091022864756426 -1.2296680073290027 0.821828106614254
@a 1.4391483801910228 -1.2296680073290027 0.821828106614254
@e 1.0009294134805171 -1.0599010751915854 0.821828106614254
@e 1.2121732853641816 1.2197833582475324 0.821828106614254
@a 1.6741253333333326 1.485872935858064 0.4282616596546574
@b 2.1248344282387692 1.414487628112288 0.4282616596546574
@b 2.5314249766599453 1.2073193961678022 0.4282616596546574
@d 2.854097062834468 0.8846473099932793 0.4282616596546574
@d 3.061265294778954 0.4780567615721033 0.4282616596546574
@d 3.13265060252473 0.027347666666666638 0.4282616596546574
@d 3.0612652947789543 -0.42336142823877004 0.4282616596546574
@d 2.854097062834468 -0.829951976659946 0.4282616596546574
@b 2.5314249766599453 -1.1526240628344688 0.4282616596546574
@b 2.1248344282387697 -1.359792294778955 0.4282616596546574
@a 1.6741253333333328 -1.431177602524731 0.4282616596546574
@e 1.2234162384278966 -1.3597922947789554 0.4282616596546574
@e 1.2234162384278955 1.414487628112288 0.4282616596546574
@a 1.6741253333333326 1.5474476666666666 4.306092839157347e-16
@b 2.122182673955348 1.479913888742179 4.306092839157347e-16
@b 2.5304281535958446 1.2833132275044103 4.306092839157347e-16
@d 2.8625873698329847 0.9751145144721275 4.306092839157347e-16
@d 3.0891465186473877 0.5827025578060235 4.306092839157347e-16
@d 3.1899748254284446 0.14094488192739027 4.306092839157347e-16
@d 3.156113252640923 -0.3109064050403269 4.306092839157347e-16
@d 2.990570549626058 -0.7327023333333331 4.306092839157347e-16
@d 2.7080559120189074 -1.0869644837018524 4.306092839157347e-16
@b 2.333672005165933 -1.3422151094318007 4.306092839157347e-16
@a 1.9006844821477358 -1.4757740722781514 4.306092839157347e-16
@a 1.4475661845189305 -1.4757740722781516 4.306092839157347e-16
@e 1.0145786615007326 -1.342215109431801 4.306092839157347e-16
@e 1.2260679927113163 1.4799138887421788 4.306092839157347e-16
@a 1.6741253333333326 1.485872935858064 -0.42826165965465723
@b 2.1248344282387692 1.414487628112288 -0.42826165965465723
@b 2.5314249766599453 1.2073193961678022 -0.42826165965465723
@d 2.854097062834468 0.8846473099932793 -0.42826165965465723
@d 3.061265294778954 0.4780567615721033 -0.42826165965465723
@d 3.13265060252473 0.027347666666666638 -0.42826165965465723
@d 3.0612652947789543 -0.42336142823877004 -0.42826165965465723
@d 2.854097062834468 -0.829951976659946 -0.42826165965465723
@b 2.5314249766599453 -1.1526240628344688 -0.42826165965465723
@b 2.1248344282387697 -1.359792294778955 -0.42826165965465723
@a 1.6741253333333328 -1.431177602524731 -0.42826165965465723
@e 1.2234162384278966 -1.3597922947789554 -0.42826165965465723
@e 1.2234162384278955 1.414487628112288 -0.42826165965465723
@a 1.6741253333333326 1.3061371619233455 -0.8218281066142533
@b 2.1360773813024836 1.2197833582475328 -0.8218281066142533
@b 2.535640245428737 0.9723845069094579 -0.8218281066142533
@d 2.8188507468575805 0.5973531936666879 -0.8218281066142533
@d 2.9474597380474847 0.14533947549290435 -0.8218281066142533
@d 2.9040978620912323 -0.32260969027804587 -0.8218281066142533
@d 2.6946213806131647 -0.7432951758129548 -0.8218281066142533
@b 2.3473212531861485 -1.0599010751915858 -0.8218281066142533
@a 1.9091022864756426 -1.2296680073290034 -0.8218281066142533
@a 1.4391483801910228 -1.2296680073290034 -0.8218281066142533
@e 1.0009294134805171 -1.059901075191586 -0.8218281066142533
@e 1.2121732853641816 1.2197833582475328 -0.8218281066142533
@a 1.6741253333333326 1.0228014683368944 -1.148814927975908
@b 2.106036550920799 0.9242205514066513 -1.148814927975908
@b 2.4524024548216032 0.64800296022956 -1.148814927975908
@d 2.644621029869147 0.24885697632468948 -1.148814927975908
@d 2.644621029869147 -0.1941616429913563 -1.148814927975908
@b 2.4524024548216032 -0.593307626896227 -1.148814927975908
@b 2.106036550920799 -0.869525218073318 -1.148814927975908
@a 1.6741253333333328 -0.9681061350035615 -1.148814927975908
@e 1.242214115745866 -0.8695252180733182 -1.148814927975908
@e 1.2422141157458664 0.9242205514066514 -1.148814927975908
@a 1.6741253333333326 0.6588200279308345 -1.3827315961384032
@b 2.080027943013442 0.5110835599963022 -1.3827315961384032
@b 2.2960042105192113 0.13700169144722285 -1.3827315961384032
@b 2.2209964399758464 -0.2883885139654173 -1.3827315961384032
@a 1.8901016008391018 -0.5660422514435254 -1.3827315961384032
@a 1.4581490658275633 -0.5660422514435255 -1.3827315961384032
@e 1.1272542266908188 -0.28838851396541776 -1.3827315961384032
@e 1.0522464561474538 0.13700169144722257 -1.3827315961384032
@e 1.268222723653223 0.5110835599963021 -1.3827315961384032
@a 1.6741253333333326 0.24368045232588734 -1.5046275738032058
@a 1.8614750213856717 -0.0808187261629438 -1.5046275738032058
@a 1.4867756452809935 -0.08081872616294396 -1.5046275738032058
@a -1.6549526666666674 -0.03701554767411297 1.5046275738032058
@a -1.4676029786143283 -0.36151472616294406 1.5046275738032058
@a -1.8423023547190065 -0.3615147261629442 1.5046275738032058
@a -1.6549526666666674 0.3781240279308338 1.3827315961384035
@e -1.2490500569865586 0.2303875599963015 1.3827315961384035
@e -1.0330737894807893 -0.14369430855277748 1.3827315961384035
@e -1.1080815600241538 -0.5690845139654174 1.3827315961384035
@a -1.4389763991608984 -0.8467382514435251 1.3827315961384035
@b -1.8709289341724364 -0.8467382514435252 1.3827315961384035
@b -2.2018237733091808 -0.5690845139654177 1.3827315961384035
@b -2.2768315438525457 -0.1436943085527778 1.3827315961384035
@b -2.0608552763467767 0.23038755999630145 1.3827315961384035
@a -1.6549526666666674 0.7421054683368942 1.148814927975908
@e -1.2230414490792008 0.6435245514066508 1.148814927975908
@e -0.876675545178397 -0.8740036268962271 1.148814927975908
@a -1.2230414490792008 -1.1502212180733182 1.148814927975908
@a -1.6549526666666672 -1.2488021350035616 1.148814927975908
@b -2.086863884254134 -1.1502212180733182 1.148814927975908
@b -2.4332297881549376 -0.8740036268962272 1.148814927975908
@d -2.625448363202482 -0.4748576429913568 1.148814927975908
@d -2.625448363202482 -0.03183902367531194 1.148814927975908
@b -2.4332297881549376 0.36730696022955955 1.148814927975908
@a -2.086863884254133 0.643524551406651 1.148814927975908
@a -1.6549526666666674 1.0254411619233446 0.821828106614254
@e -0.9817567468138518 -1.3405970751915854 0.821828106614254
@a -1.4199757135243574 -1.510364007329003 0.821828106614254
@b -1.8899296198089772 -1.510364007329003 0.821828106614254
@b -2.328148586519483 -1.3405970751915857 0.821828106614254
@d -2.675448713946498 -1.0239911758129558 0.821828106614254
@d -2.8849251954245667 -0.6033056902780463 0.821828106614254
@d -2.9282870713808187 -0.13535652450709545 0.821828106614254
@d -2.799678080190915 0.31665719366668665 0.821828106614254
@b -2.516467578762072 0.6916885069094568 0.821828106614254
@a -2.1169047146358184 0.9390873582475321 0.821828106614254
@a -1.6549526666666674 1.2051769358580637 0.4282616596546574
@e -0.7976530233400545 -1.433320062834469 0.4282616596546574
@a -1.2042435717612305 -1.6404882947789552 0.4282616596546574
@a -1.6549526666666672 -1.7118736025247312 0.4282616596546574
@b -2.1056617615721036 -1.6404882947789556 0.4282616596546574
@d -2.51225230999328 -1.4333200628344693 0.4282616596546574
@d -2.8349243961678026 -1.1106479766599466 0.4282616596546574
@d -3.0420926281122886 -0.7040574282387706 0.4282616596546574
@d -3.113477935858065 -0.253348333333334 0.4282616596546574
@d -3.042092628112289 0.1973607615721027 0.4282616596546574
@d -2.834924396167803 0.6039513099932787 0.4282616596546574
@b -2.5122523099932805 0.9266233961678016 0.4282616596546574
@a -2.1056617615721045 1.1337916281122877 0.4282616596546574
@a -1.6549526666666674 1.2667516666666663 4.306092839157347e-16
@e -0.6210220879810928 -1.3676604837018527 4.306092839157347e-16
@e -0.9954059948340671 -1.622911109431801 4.306092839157347e-16
@a -1.4283935178522642 -1.7564700722781517 4.306092839157347e-16
@b -1.8815118154810695 -1.7564700722781519 4.306092839157347e-16
@b -2.3144993384992674 -1.6229111094318012 4.306092839157347e-16
@d -2.688883245352242 -1.3676604837018527 4.306092839157347e-16
@d -2.9713978829593923 -1.0133983333333343 4.306092839157347e-16
@d -3.1369405859742576 -0.5916024050403275 4.306092839157347e-16
@d -3.1708021587617794 -0.13975111807261004 4.306092839157347e-16
@d -3.069973851980722 0.3020065578060239 4.306092839157347e-16
@d -2.84341470316632 0.6944185144721269 4.306092839157347e-16
@b -2.5112554869291803 1.0026172275044094 4.306092839157347e-16
@a -2.1030100072886837 1.1992178887421785 4.306092839157347e-16
@a -1.6549526666666674 1.2051769358580637 -0.42826165965465723
@e -0.7976530233400545 -1.433320062834469 -0.42826165965465723
@a -1.2042435717612305 -1.6404882947789552 -0.42826165965465723
@a -1.6549526666666672 -1.7118736025247312 -0.42826165965465723
@b -2.1056617615721036 -1.6404882947789556 -0.42826165965465723
@d -2.51225230999328 -1.4333200628344693 -0.42826165965465723
@d -2.8349243961678026 -1.1106479766599466 -0.42826165965465723
@d -3.0420926281122886 -0.7040574282387706 -0.42826165965465723
@d -3.113477935858065 -0.253348333333334 -0.42826165965465723
@d -3.042092628112289 0.1973607615721027 -0.42826165965465723
@d -2.834924396167803 0.6039513099932787 -0.42826165965465723
@b -2.5122523099932805 0.9266233961678016 -0.42826165965465723
@a -2.1056617615721045 1.1337916281122877 -0.42826165965465723
@a -1.6549526666666674 1.0254411619233452 -0.8218281066142533
@e -0.9817567468138515 -1.340597075191586 -0.8218281066142533
@a -1.4199757135243574 -1.5103640073290037 -0.8218281066142533
@b -1.8899296198089772 -1.5103640073290037 -0.8218281066142533
@b -2.328148586519483 -1.3405970751915863 -0.8218281066142533
@d -2.6754487139464986 -1.0239911758129563 -0.8218281066142533
@d -2.884925195424567 -0.6033056902780465 -0.8218281066142533
@d -2.9282870713808196 -0.1353565245070954 -0.8218281066142533
@d -2.7996780801909154 0.3166571936666869 -0.8218281066142533
@b -2.5164675787620725 0.6916885069094572 -0.8218281066142533
@a -2.1169047146358184 0.9390873582475325 -0.8218281066142533
@a -1.6549526666666674 0.7421054683368943 -1.148814927975908
@e -1.2230414490792008 0.643524551406651 -1.148814927975908
@e -0.8766755451783969 -0.8740036268962272 -1.148814927975908
@a -1.2230414490792008 -1.1502212180733182 -1.148814927975908
@a -1.6549526666666672 -1.2488021350035616 -1.148814927975908
@b -2.086863884254134 -1.1502212180733185 -1.148814927975908
@b -2.4332297881549376 -0.8740036268962275 -1.148814927975908
@d -2.625448363202482 -0.47485764299135685 -1.148814927975908
@d -2.6254483632024823 -0.031839023675311884 -1.148814927975908
@b -2.433229788154938 0.36730696022955966 -1.148814927975908
@a -2.0868638842541336 0.6435245514066511 -1.148814927975908
@a -1.6549526666666674 0.3781240279308342 -1.3827315961384032
@e -1.2490500569865581 0.23038755999630195 -1.3827315961384032
@e -1.0330737894807887 -0.14369430855277743 -1.3827315961384032
@e -1.1080815600241534 -0.5690845139654176 -1.3827315961384032
@a -1.4389763991608981 -0.8467382514435257 -1.3827315961384032
@b -1.8709289341724367 -0.8467382514435258 -1.3827315961384032
@b -2.201823773309181 -0.569084513965418 -1.3827315961384032
@b -2.276831543852546 -0.1436943085527777 -1.3827315961384032
@b -2.060855276346777 0.23038755999630178 -1.3827315961384032
@a -1.6549526666666674 -0.03701554767411294 -1.5046275738032058
@a -1.4676029786143283 -0.3615147261629441 -1.5046275738032058
@a -1.8423023547190065 -0.3615147261629442 -1.5046275738032058
#a 1.6741253333333326 0.2436804523258873 1.5046275738032058
#b 2.2960042105192113 0.13700169144722285 -1.3827315961384032
#c -0.4373703519697568 0.7243892605412061 1.5706875932224384
#d 2.9040978620912323 -0.32260969027804587 -0.8218281066142533
#e 1.0522464561474545 0.1370016914472225 1.3827315961384035