635

C -0.01917266666666695 0.2260006666666663 0.0
O 1.6741253333333326 0.027347666666666548 0.0
O -1.6549526666666674 -0.25334833333333373 0.0
@a -0.01917266666666695 0.38286610459022596 1.692847673119188
@a 0.11667678755090666 0.14756794770488646 1.692847673119188
@a -0.15502212088424053 0.14756794770488638 1.692847673119188
@a -0.01917266666666695 0.6912551160882143 1.6351997759581096
@a 0.2798871287730368 0.5824062522824227 1.6351997759581096
@a 0.4390135222470997 0.30679125396014917 1.6351997759581096
@a 0.38374950575613587 -0.006626558044107611 1.6351997759581096
@a 0.13995372680739607 -0.211195506242573 1.6351997759581096
@a -0.17829906014072985 -0.211195506242573 1.6351997759581096
@a -0.4220948390894697 -0.006626558044107889 1.6351997759581096
@a -0.47735885558043367 0.30679125396014895 1.6351997759581096
@a -0.31823246210637085 0.5824062522824227 1.6351997759581096
@a -0.01917266666666695 0.983800445322359 1.5218671116327414
@a 0.28905227142733386 0.9182852122601427 1.5218671116327414
@a 0.5439823175892257 0.7330676920571585 1.5218671116327414
@a 0.7015377508708546 0.4601736766048489 1.5218671116327414
@a 0.7344758055116506 0.1467890203392189 1.5218671116327414
@a 0.6371011926313875 -0.15289922266117983 1.5218671116327414
@a 0.4262508674176498 -0.3870722325993625 1.5218671116327414
@a 0.13838276661496185 -0.5152393686620085 1.5218671116327414
@a -0.17672809994829558 -0.5152393686620085 1.5218671116327414
@a -0.4645962007509835 -0.38707223259936263 1.5218671116327414
@a -0.6754465259647213 -0.1528992226611804 1.5218671116327414
@a -0.7728211388449844 0.1467890203392182 1.5218671116327414
@a -0.7398830842041886 0.46017367660484876 1.5218671116327414
@a -0.5823276509225594 0.7330676920571586 1.5218671116327414
@a -0.32739760476066776 0.9182852122601427 1.5218671116327414
@a -0.01917266666666695 1.25053981197504 1.356709088099135
@a 0.2974273406360041 1.2003952970116623 1.356709088099135
@a 0.5830363333419303 1.0548702466235242 1.356709088099135
@a 0.809696913290191 0.8282096666752635 1.356709088099135
@a 0.9552219636783289 0.5426006739693374 1.356709088099135
@a 1.0053664786417067 0.22600066666666635 1.356709088099135
@a 0.9552219636783291 -0.09059934063600478 1.356709088099135
@a 0.809696913290191 -0.3762083333419307 1.356709088099135
@a 0.5830363333419304 -0.6028689132901915 1.356709088099135
@a 0.29742734063600423 -0.7483939636783296 1.356709088099135
@a -0.019172666666666824 -0.7985384786417073 1.356709088099135
@a -0.3357726739693375 -0.7483939636783298 1.356709088099135
@a -0.621381666675264 -0.6028689132901917 1.356709088099135
@a -0.8480422466235248 -0.37620833334193104 1.356709088099135
@a -1.0437118119750406 0.2260006666666661 1.356709088099135
@a -0.993567297011663 0.5426006739693372 1.356709088099135
@a -0.848042246623525 0.8282096666752632 1.356709088099135
@a -0.6213816666752643 1.054870246623524 1.356709088099135
@a -0.33577267396933835 1.2003952970116623 1.356709088099135
@a -0.01917266666666695 1.4823897268335087 1.1453499637635118
@a 0.2932785869413831 1.4429179541704964 1.1453499637635118
@a 0.5860973791699104 1.326982792824902 1.1453499637635118
@a 0.8408848283910102 1.1418688753637667 1.1453499637635118
@a 1.0416317021274297 0.8992075900225391 1.1453499637635118
@a 0.719314294041004 -0.7904394345550776 1.1453499637635118
@a 0.44333499410517513 -0.9421603386037034 1.1453499637635118
@a 0.13829463685886098 -1.020481390495538 1.1453499637635118
@a -0.17663997019219457 -1.020481390495538 1.1453499637635118
@a -0.48168032743850875 -0.9421603386037034 1.1453499637635118
@a -0.7576596273743371 -0.790439434555078 1.1453499637635118
@a -1.0799770354607634 0.8992075900225394 1.1453499637635118
@a -0.8792301617243444 1.1418688753637662 1.1453499637635118
@a -0.6244427125032453 1.3269827928249014 1.1453499637635118
@a -0.33162392027471765 1.4429179541704964 1.1453499637635118
@a -0.01917266666666695 1.671454819120583 0.894987320107793
@a 0.29155724879120426 1.6376609042896628 0.894987320107793
@a 0.5877577787537619 1.5378593256951572 0.894987320107793
@a 0.8555789156432011 1.376716694230658 0.894987320107793
@a 1.0824976407603861 1.161767860246273 0.894987320107793
@a 0.7260367970034924 -1.0125470966847128 0.894987320107793
@a 0.4423630559532744 -1.143788544705638 0.894987320107793
@a 0.13710841747346145 -1.2109801716141566 0.894987320107793
@a -0.17545375080679435 -1.2109801716141568 0.894987320107793
@a -0.4807083892866086 -1.143788544705638 0.894987320107793
@a -1.1208429740937196 1.1617678602462733 0.894987320107793
@a -0.8939242489765346 1.3767166942306581 0.894987320107793
@a -0.6261031120870962 1.5378593256951572 0.894987320107793
@a -0.32990258212453855 1.6376609042896628 0.894987320107793
@a -0.01917266666666695 1.8112967038770116 0.6141469566847786
@a 0.2999450795261929 1.7788456008631282 0.6141469566847786
@a 0.605998107695174 1.682820843791709 0.6141469566847786
@a 0.8864565709073345 1.5271536974996878 0.6141469566847786
@a 1.129838466726298 1.318217193246373 0.6141469566847786
@a 0.7501746113842592 -1.1600975590556146 0.6141469566847786
@a 0.4554065058699108 -1.2865925154511566 0.6141469566847786
@a 0.1412090732712304 -1.3511617292486424 0.6141469566847786
@a -0.1795544066045632 -1.3511617292486426 0.6141469566847786
@a -0.493751839203245 -1.2865925154511566 0.6141469566847786
@a -1.1681838000596318 1.3182171932463729 0.6141469566847786
@a -0.9248019042406685 1.5271536974996878 0.6141469566847786
@a -0.6443434410285083 1.682820843791709 0.6141469566847786
@a -0.33829041285952854 1.7788456008631277 0.6141469566847786
@a -0.01917266666666695 1.8971532334392676 0.3123925552399516
@a 0.29709503611114135 1.8669533294849154 0.3123925552399516
@a 0.6019320000830976 1.7774451208358506 0.3123925552399516
@a 0.8843206231262923 1.6318636673640137 0.3123925552399516
@a 1.134054644647564 1.435470662106654 0.3123925552399516
@a 0.7465937612813763 -1.2593789747914856 0.3123925552399516
@a 0.4516454188422967 -1.3774584789894766 0.3123925552399516
@a 0.1396804840883658 -1.4375847918914004 0.3123925552399516
@a -0.17802581742169932 -1.4375847918914004 0.3123925552399516
@a -0.48999075217562954 -1.377458478989477 0.3123925552399516
@a -1.172399977980898 1.4354706621066537 0.3123925552399516
@a -0.9226659564596275 1.6318636673640128 0.3123925552399516
@a -0.6402773334164323 1.7774451208358502 0.3123925552399516
@a -0.33544036944447597 1.8669533294849152 0.3123925552399516
@a -0.01917266666666695 1.9261006666666662 1.0410110116152076e-16
@a 0.2932198885732843 1.8971532334392676 1.0410110116152076e-16
@a 0.5949742900181118 1.8112967038770116 1.0410110116152076e-16
@a 0.8758146534411255 1.6714548191205834 1.0410110116152076e-16
@a 1.1261772970968449 1.4823897268335087 1.0410110116152076e-16
@a 0.5949742900181124 -1.3592953705436788 1.0410110116152076e-16
@a 0.29321988857328435 -1.445151900105935 1.0410110116152076e-16
@a -0.01917266666666674 -1.4740993333333337 1.0410110116152076e-16
@a -0.3315652219066178 -1.445151900105935 1.0410110116152076e-16
@a -1.3758817547658024 1.2505398119750397 1.0410110116152076e-16
@a -1.1645226304301797 1.482389726833508 1.0410110116152076e-16
@a -0.9141599867744601 1.671454819120583 1.0410110116152076e-16
@a -0.6333196233514458 1.8112967038770116 1.0410110116152076e-16
@a -0.3315652219066177 1.8971532334392676 1.0410110116152076e-16
@a -0.01917266666666695 1.8971532334392676 -0.31239255523995096
@a 0.29709503611114135 1.8669533294849154 -0.31239255523995096
@a 0.6019320000830976 1.7774451208358506 -0.31239255523995096
@a 0.8843206231262923 1.6318636673640137 -0.31239255523995096
@a 1.134054644647564 1.435470662106654 -0.31239255523995096
@a 0.7465937612813763 -1.2593789747914856 -0.31239255523995096
@a 0.4516454188422967 -1.3774584789894766 -0.31239255523995096
@a 0.1396804840883658 -1.4375847918914004 -0.31239255523995096
@a -0.17802581742169932 -1.4375847918914004 -0.31239255523995096
@a -0.48999075217562954 -1.377458478989477 -0.31239255523995096
@a -1.172399977980898 1.4354706621066537 -0.31239255523995096
@a -0.9226659564596275 1.6318636673640128 -0.31239255523995096
@a -0.6402773334164323 1.7774451208358502 -0.31239255523995096
@a -0.33544036944447597 1.8669533294849152 -0.31239255523995096
@a -0.01917266666666695 1.8112967038770116 -0.6141469566847787
@a 0.2999450795261929 1.7788456008631282 -0.6141469566847787
@a 0.605998107695174 1.682820843791709 -0.6141469566847787
@a 0.8864565709073345 1.5271536974996878 -0.6141469566847787
@a 1.129838466726298 1.318217193246373 -0.6141469566847787
@a 0.7501746113842592 -1.1600975590556146 -0.6141469566847787
@a 0.4554065058699108 -1.2865925154511566 -0.6141469566847787
@a 0.1412090732712304 -1.3511617292486424 -0.6141469566847787
@a -0.1795544066045632 -1.3511617292486426 -0.6141469566847787
@a -0.493751839203245 -1.2865925154511566 -0.6141469566847787
@a -1.1681838000596318 1.3182171932463729 -0.6141469566847787
@a -0.9248019042406685 1.5271536974996878 -0.6141469566847787
@a -0.6443434410285083 1.682820843791709 -0.6141469566847787
@a -0.33829041285952854 1.7788456008631277 -0.6141469566847787
@a -0.01917266666666695 1.6714548191205836 -0.894987320107792
@a 0.2915572487912043 1.6376609042896633 -0.894987320107792
@a 0.5877577787537621 1.5378593256951576 -0.894987320107792
@a 0.8555789156432014 1.3767166942306583 -0.894987320107792
@a 1.0824976407603866 1.1617678602462733 -0.894987320107792
@a 0.7260367970034928 -1.0125470966847132 -0.894987320107792
@a 0.44236305595327463 -1.1437885447056384 -0.894987320107792
@a 0.13710841747346147 -1.2109801716141573 -0.894987320107792
@a -0.1754537508067944 -1.2109801716141575 -0.894987320107792
@a -0.4807083892866088 -1.1437885447056384 -0.894987320107792
@a -1.1208429740937202 1.1617678602462738 -0.894987320107792
@a -0.893924248976535 1.3767166942306586 -0.894987320107792
@a -0.6261031120870965 1.5378593256951576 -0.894987320107792
@a -0.3299025821245387 1.6376609042896633 -0.894987320107792
@a -0.01917266666666695 1.4823897268335087 -1.1453499637635118
@a 0.2932785869413831 1.4429179541704964 -1.1453499637635118
@a 0.5860973791699104 1.326982792824902 -1.1453499637635118
@a 0.8408848283910102 1.1418688753637667 -1.1453499637635118
@a 1.0416317021274297 0.8992075900225391 -1.1453499637635118
@a 0.719314294041004 -0.7904394345550776 -1.1453499637635118
@a 0.44333499410517513 -0.9421603386037034 -1.1453499637635118
@a 0.13829463685886098 -1.020481390495538 -1.1453499637635118
@a -0.17663997019219457 -1.020481390495538 -1.1453499637635118
@a -0.48168032743850875 -0.9421603386037034 -1.1453499637635118
@a -0.7576596273743371 -0.790439434555078 -1.1453499637635118
@a -1.0799770354607634 0.8992075900225394 -1.1453499637635118
@a -0.8792301617243444 1.1418688753637662 -1.1453499637635118
@a -0.6244427125032453 1.3269827928249014 -1.1453499637635118
@a -0.33162392027471765 1.4429179541704964 -1.1453499637635118
@a -0.01917266666666695 1.2505398119750402 -1.356709088099135
@a 0.2974273406360042 1.2003952970116623 -1.356709088099135
@a 0.5830363333419304 1.0548702466235245 -1.356709088099135
@a 0.8096969132901912 0.8282096666752636 -1.356709088099135
@a 0.9552219636783291 0.5426006739693374 -1.356709088099135
@a 1.005366478641707 0.22600066666666635 -1.356709088099135
@a 0.9552219636783291 -0.09059934063600478 -1.356709088099135
@a 0.8096969132901912 -0.37620833334193093 -1.356709088099135
@a 0.5830363333419304 -0.6028689132901917 -1.356709088099135
@a 0.29742734063600434 -0.7483939636783298 -1.356709088099135
@a -0.019172666666666824 -0.7985384786417076 -1.356709088099135
@a -0.3357726739693376 -0.74839396367833 -1.356709088099135
@a -0.6213816666752642 -0.6028689132901919 -1.356709088099135
@a -0.8480422466235249 -0.37620833334193104 -1.356709088099135
@a -1.0437118119750408 0.2260006666666661 -1.356709088099135
@a -0.993567297011663 0.5426006739693373 -1.356709088099135
@a -0.8480422466235251 0.8282096666752633 -1.356709088099135
@a -0.6213816666752644 1.0548702466235242 -1.356709088099135
@a -0.33577267396933835 1.2003952970116623 -1.356709088099135
@a -0.01917266666666695 0.9838004453223591 -1.5218671116327414
@a 0.289052271427334 0.9182852122601428 -1.5218671116327414
@a 0.5439823175892258 0.7330676920571586 -1.5218671116327414
@a 0.7015377508708548 0.460173676604849 -1.5218671116327414
@a 0.7344758055116507 0.14678902033921887 -1.5218671116327414
@a 0.6371011926313878 -0.15289922266117995 -1.5218671116327414
@a 0.4262508674176499 -0.38707223259936274 -1.5218671116327414
@a 0.1383827666149619 -0.5152393686620087 -1.5218671116327414
@a -0.1767280999482956 -0.5152393686620087 -1.5218671116327414
@a -0.46459620075098357 -0.38707223259936285 -1.5218671116327414
@a -0.6754465259647214 -0.15289922266118045 -1.5218671116327414
@a -0.7728211388449845 0.1467890203392182 -1.5218671116327414
@a -0.7398830842041887 0.46017367660484876 -1.5218671116327414
@a -0.5823276509225597 0.7330676920571587 -1.5218671116327414
@a -0.32739760476066787 0.9182852122601429 -1.5218671116327414
@a -0.01917266666666695 0.6912551160882147 -1.6351997759581096
@a 0.279887128773037 0.582406252282423 -1.6351997759581096
@a 0.43901352224710005 0.3067912539601492 -1.6351997759581096
@a 0.3837495057561362 -0.006626558044107805 -1.6351997759581096
@a 0.1399537268073962 -0.21119550624257338 -1.6351997759581096
@a -0.17829906014073 -0.21119550624257338 -1.6351997759581096
@a -0.42209483908947004 -0.006626558044108083 -1.6351997759581096
@a -0.47735885558043406 0.306791253960149 -1.6351997759581096
@a -0.3182324621063711 0.5824062522824229 -1.6351997759581096
@a -0.01917266666666695 0.38286610459022574 -1.6928476731191882
@a 0.11667678755090644 0.1475679477048866 -1.6928476731191882
@a -0.1550221208842403 0.1475679477048865 -1.6928476731191882
@b 1.6741253333333326 0.18624138367982657 1.5117727331493123
@b 1.8117313287684649 -0.052099191839913433 1.5117727331493123
@b 1.5365193378982003 -0.05209919183991353 1.5117727331493123
@b 1.6741253333333326 0.4970843998160241 1.445701010420263
@b 1.9760662852163717 0.3871868808245941 1.445701010420263
@b 2.1367257100134465 0.10891659436126967 1.445701010420263
@b 2.080929277331388 -0.20752069990801214 1.445701010420263
@b 1.8347847581304073 -0.41406047518586414 1.445701010420263
@b 1.5134659085362578 -0.41406047518586414 1.445701010420263
@b 1.2673213893352773 -0.20752069990801245 1.445701010420263
@b 1.2115249566532187 0.10891659436126945 1.445701010420263
@b 1.3721843814502932 0.387186880824594 1.445701010420263
@b 1.6741253333333326 0.7873976666666664 1.3164452162927254
@b 1.9832655189030945 0.7216878917479252 1.3164452162927254
@b 2.238952557937426 0.5359203840297166 1.3164452162927254
@b 2.396975838543464 0.26221603324134535 1.3164452162927254
@b 2.430011699907989 -0.05209919183991335 1.3164452162927254
@b 2.332347941479695 -0.35267733333333323 1.3164452162927254
@b 2.120871514338227 -0.5875456999080121 1.3164452162927254
@b 1.8321486139393706 -0.7160934172710623 1.3164452162927254
@b 1.5161020527272948 -0.7160934172710623 1.3164452162927254
@b 1.2273791523284385 -0.5875456999080122 1.3164452162927254
@b 1.0159027251869701 -0.35267733333333373 1.3164452162927254
@b 1.1092981087292393 0.5359203840297169 1.3164452162927254
@b 1.3649851477635706 0.7216878917479254 1.3164452162927254
@b 1.6741253333333326 1.044493101392767 1.129654449208187
@b 1.9884405584145914 0.994710460382791 1.129654449208187
@b 2.271988419301951 0.8502356091109756 1.129654449208187
@b 2.4970132757776415 0.6252107526352847 1.129654449208187
@b 2.641488127049457 0.34166289174792536 1.129654449208187
@b 2.691270768059433 0.02734766666666661 1.129654449208187
@b 2.641488127049457 -0.2869675584145922 1.129654449208187
@b 2.4970132757776415 -0.5705154193019515 1.129654449208187
@b 2.271988419301951 -0.7955402757776424 1.129654449208187
@b 1.9884405584145914 -0.9400151270494579 1.129654449208187
@b 1.6741253333333328 -0.9897977680594339 1.129654449208187
@b 1.3598101082520744 -0.9400151270494582 1.129654449208187
@b 1.0762622473647145 -0.7955402757776425 1.129654449208187
@b 1.3598101082520735 0.994710460382791 1.129654449208187
@b 1.6741253333333326 1.2571343998160243 0.8934923620097884
@b 1.9799608572370817 1.2184983881745237 0.8934923620097884
@b 2.2665796103895817 1.1050179959547688 0.8934923620097884
@b 2.515972282420222 0.9238236135516156 0.8934923620097884
@b 2.71246861454323 0.6863003503977774 0.8934923620097884
@b 2.843722019548358 0.40737266666666666 0.8934923620097884
@b 2.9014853632828776 0.10456661455137196 0.8934923620097884
@b 2.8821291624212306 -0.2030913880509438 0.8934923620097884
@b 2.786869638250681 -0.4962700573497921 0.8934923620097884
@b 2.621692297014888 -0.7565478993174042 0.8934923620097884
@b 2.3969758385434643 -0.9675706999080121 0.8934923620097884
@b 2.1268400243714916 -1.116079120472936 0.8934923620097884
@b 1.8282584811934242 -1.1927418307723157 0.8934923620097884
@b 1.5199921854732414 -1.1927418307723159 0.8934923620097884
@b 1.221410642295174 -1.116079120472936 0.8934923620097884
@b 0.9512748281232016 -0.9675706999080128 0.8934923620097884
@b 1.3682898094295828 1.2184983881745235 0.8934923620097884
@b 1.6741253333333326 1.4160281168291842 0.6182803711395242
@b 1.983135804070371 1.3812109986313248 0.6182803711395242
@b 2.2766511994892995 1.2785055197278117 0.6182803711395242
@b 2.5399534320502575 1.1130617616915988 0.6182803711395242
@b 2.759839428358265 0.8931757653835916 0.6182803711395242
@b 2.925283186394478 0.6298735328226336 0.6182803711395242
@b 3.0279886652979906 0.3363581374037052 0.6182803711395242
@b 3.0628057834958504 0.027347666666666635 0.6182803711395242
@b 3.0279886652979906 -0.2816628040703719 0.6182803711395242
@b 2.925283186394478 -0.5751781994893004 0.6182803711395242
@b 2.759839428358265 -0.8384804320502584 0.6182803711395242
@b 2.5399534320502584 -1.058366428358265 0.6182803711395242
@b 2.2766511994893 -1.2238101863944786 0.6182803711395242
@b 1.9831358040703706 -1.326515665297992 0.6182803711395242
@b 1.6741253333333328 -1.361332783495851 0.6182803711395242
@b 1.3651148625962948 -1.326515665297992 0.6182803711395242
@b 1.0715994671773656 -1.2238101863944786 0.6182803711395242
@b 1.3651148625962937 1.3812109986313246 0.6182803711395242
@b 1.6741253333333326 1.5142298345421246 0.3160465612120758
@b 1.9832655189030945 1.4817378917479256 0.3160465612120758
@b 2.278894794944265 1.3856821171790743 0.3160465612120758
@b 2.5480927435071883 1.2302606091109756 0.3160465612120758
@b 2.7790941224845893 1.0222660332413454 0.3160465612120758
@b 2.9618030631475576 0.7707887506043958 0.3160465612120758
@b 3.0882343080543517 0.4868195251732466 0.3160465612120758
@b 3.1528622051181205 0.18276917473476528 0.3160465612120758
@b 3.1528622051181205 -0.12807384140143202 0.3160465612120758
@b 3.0882343080543517 -0.43212419183991335 0.3160465612120758
@b 2.961803063147558 -0.7160934172710621 0.3160465612120758
@b 2.7790941224845898 -0.9675706999080118 0.3160465612120758
@b 2.5480927435071883 -1.1755652757776425 0.3160465612120758
@b 2.2788947949442644 -1.3309867838457414 0.3160465612120758
@b 1.9832655189030945 -1.4270425584145925 0.3160465612120758
@b 1.6741253333333335 -1.4595345012087915 0.3160465612120758
@b 1.364985147763571 -1.4270425584145925 0.3160465612120758
@b 1.0693558717224003 -1.3309867838457412 0.3160465612120758
@b 1.364985147763571 1.4817378917479256 0.3160465612120758
@b 1.6741253333333326 1.5474476666666666 4.306092839157347e-16
@b 1.9901718945454085 1.5142298345421246 4.306092839157347e-16
@b 2.2924057044728565 1.4160281168291842 4.306092839157347e-16
@b 2.567617695343121 1.2571343998160243 4.306092839157347e-16
@b 2.803779782541519 1.044493101392767 4.306092839157347e-16
@b 2.9905705496260575 0.7873976666666668 4.306092839157347e-16
@b 3.1198263437535956 0.49708439981602415 4.306092839157347e-16
@b 3.185898066482645 0.18624138367982657 4.306092839157347e-16
@b 3.185898066482645 -0.13154605034649328 4.306092839157347e-16
@b 3.1198263437535956 -0.4423890664826909 4.306092839157347e-16
@b 2.990570549626058 -0.7327023333333331 4.306092839157347e-16
@b 2.80377978254152 -0.9897977680594334 4.306092839157347e-16
@b 2.567617695343121 -1.202439066482691 4.306092839157347e-16
@b 2.292405704472856 -1.3613327834958513 4.306092839157347e-16
@b 1.9901718945454085 -1.4595345012087915 4.306092839157347e-16
@b 1.6741253333333335 -1.4927523333333335 4.306092839157347e-16
@b 1.358078772121257 -1.4595345012087915 4.306092839157347e-16
@b 1.0558449621938086 -1.361332783495851 4.306092839157347e-16
@b 1.358078772121257 1.5142298345421246 4.306092839157347e-16
@b 1.6741253333333326 1.5142298345421246 -0.31604656121207597
@b 1.9832655189030945 1.4817378917479256 -0.31604656121207597
@b 2.278894794944265 1.3856821171790743 -0.31604656121207597
@b 2.5480927435071883 1.2302606091109756 -0.31604656121207597
@b 2.7790941224845893 1.0222660332413454 -0.31604656121207597
@b 2.9618030631475576 0.7707887506043958 -0.31604656121207597
@b 3.0882343080543517 0.4868195251732466 -0.31604656121207597
@b 3.1528622051181205 0.18276917473476528 -0.31604656121207597
@b 3.1528622051181205 -0.12807384140143202 -0.31604656121207597
@b 3.0882343080543517 -0.43212419183991335 -0.31604656121207597
@b 2.961803063147558 -0.7160934172710621 -0.31604656121207597
@b 2.7790941224845898 -0.9675706999080118 -0.31604656121207597
@b 2.5480927435071883 -1.1755652757776425 -0.31604656121207597
@b 2.2788947949442644 -1.3309867838457414 -0.31604656121207597
@b 1.9832655189030945 -1.4270425584145925 -0.31604656121207597
@b 1.6741253333333335 -1.4595345012087915 -0.31604656121207597
@b 1.364985147763571 -1.4270425584145925 -0.31604656121207597
@b 1.0693558717224003 -1.3309867838457412 -0.31604656121207597
@b 1.364985147763571 1.4817378917479256 -0.31604656121207597
@b 1.6741253333333326 1.4160281168291844 -0.6182803711395237
@b 1.983135804070371 1.381210998631325 -0.6182803711395237
@b 2.2766511994892995 1.278505519727812 -0.6182803711395237
@b 2.5399534320502575 1.1130617616915988 -0.6182803711395237
@b 2.759839428358265 0.8931757653835918 -0.6182803711395237
@b 2.925283186394478 0.6298735328226337 -0.6182803711395237
@b 3.027988665297991 0.3363581374037052 -0.6182803711395237
@b 3.0628057834958504 0.027347666666666635 -0.6182803711395237
@b 3.027988665297991 -0.2816628040703719 -0.6182803711395237
@b 2.925283186394478 -0.5751781994893004 -0.6182803711395237
@b 2.759839428358265 -0.8384804320502585 -0.6182803711395237
@b 2.5399534320502584 -1.0583664283582652 -0.6182803711395237
@b 2.2766511994893 -1.2238101863944786 -0.6182803711395237
@b 1.9831358040703706 -1.3265156652979921 -0.6182803711395237
@b 1.6741253333333328 -1.3613327834958513 -0.6182803711395237
@b 1.3651148625962948 -1.3265156652979921 -0.6182803711395237
@b 1.0715994671773656 -1.2238101863944788 -0.6182803711395237
@b 1.3651148625962937 1.3812109986313248 -0.6182803711395237
@b 1.6741253333333326 1.2571343998160243 -0.8934923620097882
@b 1.9799608572370817 1.2184983881745237 -0.8934923620097882
@b 2.2665796103895817 1.1050179959547688 -0.8934923620097882
@b 2.515972282420222 0.9238236135516156 -0.8934923620097882
@b 2.71246861454323 0.6863003503977774 -0.8934923620097882
@b 2.843722019548358 0.40737266666666666 -0.8934923620097882
@b 2.9014853632828776 0.10456661455137196 -0.8934923620097882
@b 2.8821291624212306 -0.2030913880509438 -0.8934923620097882
@b 2.786869638250681 -0.4962700573497921 -0.8934923620097882
@b 2.621692297014888 -0.7565478993174042 -0.8934923620097882
@b 2.3969758385434643 -0.9675706999080121 -0.8934923620097882
@b 2.1268400243714916 -1.116079120472936 -0.8934923620097882
@b 1.8282584811934242 -1.1927418307723157 -0.8934923620097882
@b 1.5199921854732414 -1.1927418307723159 -0.8934923620097882
@b 1.221410642295174 -1.116079120472936 -0.8934923620097882
@b 0.9512748281232016 -0.9675706999080128 -0.8934923620097882
@b 1.3682898094295828 1.2184983881745235 -0.8934923620097882
@b 1.6741253333333326 1.0444931013927672 -1.1296544492081868
@b 1.9884405584145914 0.9947104603827912 -1.1296544492081868
@b 2.271988419301951 0.8502356091109758 -1.1296544492081868
@b 2.497013275777642 0.6252107526352848 -1.1296544492081868
@b 2.641488127049457 0.34166289174792547 -1.1296544492081868
@b 2.691270768059433 0.02734766666666661 -1.1296544492081868
@b 2.6414881270494575 -0.28696755841459226 -1.1296544492081868
@b 2.497013275777642 -0.5705154193019516 -1.1296544492081868
@b 2.271988419301951 -0.7955402757776425 -1.1296544492081868
@b 1.9884405584145917 -0.9400151270494581 -1.1296544492081868
@b 1.6741253333333328 -0.9897977680594341 -1.1296544492081868
@b 1.3598101082520744 -0.9400151270494584 -1.1296544492081868
@b 1.0762622473647143 -0.7955402757776427 -1.1296544492081868
@b 1.3598101082520735 0.9947104603827912 -1.1296544492081868
@b 1.6741253333333326 0.7873976666666664 -1.3164452162927254
@b 1.9832655189030945 0.7216878917479252 -1.3164452162927254
@b 2.238952557937426 0.5359203840297166 -1.3164452162927254
@b 2.396975838543464 0.26221603324134535 -1.3164452162927254
@b 2.430011699907989 -0.05209919183991335 -1.3164452162927254
@b 2.332347941479695 -0.35267733333333323 -1.3164452162927254
@b 2.120871514338227 -0.5875456999080121 -1.3164452162927254
@b 1.8321486139393706 -0.7160934172710623 -1.3164452162927254
@b 1.5161020527272948 -0.7160934172710623 -1.3164452162927254
@b 1.2273791523284385 -0.5875456999080122 -1.3164452162927254
@b 1.0159027251869701 -0.35267733333333373 -1.3164452162927254
@b 1.1092981087292393 0.5359203840297169 -1.3164452162927254
@b 1.3649851477635706 0.7216878917479254 -1.3164452162927254
@b 1.6741253333333326 0.49708439981602426 -1.445701010420263
@b 1.976066285216372 0.38718688082459424 -1.445701010420263
@b 2.136725710013447 0.1089165943612697 -1.445701010420263
@b 2.0809292773313883 -0.20752069990801222 -1.445701010420263
@b 1.8347847581304073 -0.4140604751858642 -1.445701010420263
@b 1.5134659085362578 -0.4140604751858643 -1.445701010420263
@b 1.267321389335277 -0.20752069990801253 -1.445701010420263
@b 1.2115249566532185 0.10891659436126949 -1.445701010420263
@b 1.372184381450293 0.3871868808245941 -1.445701010420263
@b 1.6741253333333326 0.18624138367982632 -1.5117727331493125
@b 1.8117313287684647 -0.05209919183991331 -1.5117727331493125
@b 1.5365193378982005 -0.052099191839913406 -1.5117727331493125
@c -1.6549526666666674 -0.09445461632017371 1.5117727331493123
@c -1.517346671231535 -0.3327951918399137 1.5117727331493123
@c -1.7925586621017997 -0.3327951918399138 1.5117727331493123
@c -1.6549526666666674 0.2163883998160238 1.445701010420263
@c -1.3530117147836282 0.10649088082459385 1.445701010420263
@c -1.1923522899865535 -0.17177940563873062 1.445701010420263
@c -1.2481487226686119 -0.4882166999080124 1.445701010420263
@c -1.4942932418695927 -0.6947564751858644 1.445701010420263
@c -1.8156120914637421 -0.6947564751858644 1.445701010420263
@c -2.0617566106647227 -0.48821669990801275 1.445701010420263
@c -2.1175530433467813 -0.17177940563873084 1.445701010420263
@c -1.9568936185497068 0.10649088082459374 1.445701010420263
@c -1.6549526666666674 0.5067016666666662 1.3164452162927254
@c -1.3458124810969054 0.44099189174792497 1.3164452162927254
@c -0.9967300585203048 -0.6333733333333336 1.3164452162927254
@c -1.2082064856617731 -0.8682416999080124 1.3164452162927254
@c -1.4969293860606294 -0.9967894172710626 1.3164452162927254
@c -1.8129759472727052 -0.9967894172710626 1.3164452162927254
@c -2.1016988476715612 -0.8682416999080125 1.3164452162927254
@c -2.31317527481303 -0.633373333333334 1.3164452162927254
@c -2.4108390332413236 -0.33279519183991435 1.3164452162927254
@c -2.377803171876799 -0.018479966758655125 1.3164452162927254
@c -2.2197798912707607 0.2552243840297166 1.3164452162927254
@c -1.9640928522364294 0.4409918917479251 1.3164452162927254
@c -1.6549526666666674 0.7637971013927667 1.129654449208187
@c -1.3406374415854085 0.7140144603827907 1.129654449208187
@c -0.8320647242223583 -0.8512114193019518 1.129654449208187
@c -1.0570895806980491 -1.0762362757776427 1.129654449208187
@c -1.3406374415854085 -1.2207111270494582 1.129654449208187
@c -1.6549526666666672 -1.2704937680594341 1.129654449208187
@c -1.9692678917479256 -1.2207111270494586 1.129654449208187
@c -2.2528157526352857 -1.0762362757776427 1.129654449208187
@c -2.4778406091109764 -0.8512114193019521 1.129654449208187
@c -2.622315460382792 -0.5676635584145927 1.129654449208187
@c -2.672098101392768 -0.2533483333333339 1.129654449208187
@c -2.622315460382792 0.06096689174792491 1.129654449208187
@c -2.477840609110977 0.3445147526352843 1.129654449208187
@c -2.2528157526352857 0.5695396091109752 1.129654449208187
@c -1.9692678917479265 0.7140144603827907 1.129654449208187
@c -1.6549526666666674 0.976438399816024 0.8934923620097884
@c -1.3491171427629183 0.9378023881745234 0.8934923620097884
@c -0.9321021614565358 -1.2482666999080125 0.8934923620097884
@c -1.2022379756285084 -1.3967751204729362 0.8934923620097884
@c -1.5008195188065758 -1.473437830772316 0.8934923620097884
@c -1.8090858145267585 -1.4734378307723162 0.8934923620097884
@c -2.107667357704826 -1.3967751204729362 0.8934923620097884
@c -2.3778031718767982 -1.248266699908013 0.8934923620097884
@c -2.6025196303482234 -1.0372438993174042 0.8934923620097884
@c -2.7676969715840163 -0.7769660573497916 0.8934923620097884
@c -2.8629564957545655 -0.4837873880509441 0.8934923620097884
@c -2.8823126966162125 -0.17612938544862916 0.8934923620097884
@c -2.824549352881693 0.12667666666666605 0.8934923620097884
@c -2.693295947876565 0.4056043503977773 0.8934923620097884
@c -2.496799615753557 0.6431276135516147 0.8934923620097884
@c -2.2474069437229174 0.8243219959547681 0.8934923620097884
@c -1.9607881905704172 0.9378023881745232 0.8934923620097884
@c -1.6549526666666674 1.135332116829184 0.6182803711395242
@c -1.345942195929629 1.1005149986313245 0.6182803711395242
@c -0.7891245679497418 -1.3390624283582653 0.6182803711395242
@c -1.0524268005107003 -1.5045061863944789 0.6182803711395242
@c -1.3459421959296294 -1.6072116652979922 0.6182803711395242
@c -1.6549526666666672 -1.6420287834958514 0.6182803711395242
@c -1.9639631374037052 -1.6072116652979922 0.6182803711395242
@c -2.2574785328226343 -1.5045061863944789 0.6182803711395242
@c -2.5207807653835927 -1.3390624283582655 0.6182803711395242
@c -2.7406667616915996 -1.119176432050259 0.6182803711395242
@c -2.9061105197278128 -0.855874199489301 0.6182803711395242
@c -3.0088159986313254 -0.5623588040703725 0.6182803711395242
@c -3.0436331168291852 -0.253348333333334 0.6182803711395242
@c -3.0088159986313263 0.05566213740370329 0.6182803711395242
@c -2.9061105197278128 0.349177532822633 0.6182803711395242
@c -2.7406667616915996 0.612479765383591 0.6182803711395242
@c -2.5207807653835927 0.8323657616915983 0.6182803711395242
@c -2.2574785328226334 0.9978095197278118 0.6182803711395242
@c -1.9639631374037063 1.1005149986313243 0.6182803711395242
@c -1.6549526666666674 1.2335338345421243 0.3160465612120758
@c -0.7809852564928117 -1.4562612757776427 0.3160465612120758
@c -1.0501832050557354 -1.6116827838457417 0.3160465612120758
@c -1.3458124810969054 -1.7077385584145928 0.3160465612120758
@c -1.6549526666666665 -1.7402305012087917 0.3160465612120758
@c -1.964092852236429 -1.7077385584145928 0.3160465612120758
@c -2.2597221282775997 -1.6116827838457415 0.3160465612120758
@c -2.5289200768405227 -1.4562612757776427 0.3160465612120758
@c -2.759921455817924 -1.248266699908013 0.3160465612120758
@c -2.942630396480892 -0.9967894172710634 0.3160465612120758
@c -3.0690616413876866 -0.712820191839914 0.3160465612120758
@c -3.1336895384514554 -0.40876984140143363 0.3160465612120758
@c -3.1336895384514554 -0.09792682526523569 0.3160465612120758
@c -3.0690616413876866 0.206123525173246 0.3160465612120758
@c -2.9426303964808924 0.4900927506043955 0.3160465612120758
@c -2.759921455817924 0.7415700332413454 0.3160465612120758
@c -2.5289200768405236 0.9495646091109753 0.3160465612120758
@c -2.2597221282775997 1.1049861171790742 0.3160465612120758
@c -1.964092852236429 1.2010418917479253 0.3160465612120758
@c -1.6549526666666674 1.2667516666666663 4.306092839157347e-16
@c -0.7614603046568789 -1.4831350664826912 4.306092839157347e-16
@c -1.036672295527144 -1.6420287834958516 4.306092839157347e-16
@c -1.3389061054545914 -1.7402305012087917 4.306092839157347e-16
@c -1.6549526666666665 -1.7734483333333337 4.306092839157347e-16
@c -1.970999227878743 -1.7402305012087917 4.306092839157347e-16
@c -2.2732330378061913 -1.6420287834958514 4.306092839157347e-16
@c -2.5484450286764555 -1.4831350664826914 4.306092839157347e-16
@c -2.784607115874854 -1.2704937680594344 4.306092839157347e-16
@c -2.9713978829593923 -1.0133983333333343 4.306092839157347e-16
@c -3.1006536770869304 -0.7230850664826916 4.306092839157347e-16
@c -3.16672539981598 -0.41224205034649497 4.306092839157347e-16
@c -3.16672539981598 -0.09445461632017443 4.306092839157347e-16
@c -3.1006536770869304 0.21638839981602354 4.306092839157347e-16
@c -2.9713978829593923 0.5067016666666665 4.306092839157347e-16
@c -2.784607115874854 0.7637971013927669 4.306092839157347e-16
@c -2.548445028676456 0.9764383998160238 4.306092839157347e-16
@c -2.2732330378061913 1.1353321168291841 4.306092839157347e-16
@c -1.970999227878743 1.2335338345421243 4.306092839157347e-16
@c -1.6549526666666674 1.2335338345421243 -0.31604656121207597
@c -0.7809852564928117 -1.4562612757776427 -0.31604656121207597
@c -1.0501832050557354 -1.6116827838457417 -0.31604656121207597
@c -1.3458124810969054 -1.7077385584145928 -0.31604656121207597
@c -1.6549526666666665 -1.7402305012087917 -0.31604656121207597
@c -1.964092852236429 -1.7077385584145928 -0.31604656121207597
@c -2.2597221282775997 -1.6116827838457415 -0.31604656121207597
@c -2.5289200768405227 -1.4562612757776427 -0.31604656121207597
@c -2.759921455817924 -1.248266699908013 -0.31604656121207597
@c -2.942630396480892 -0.9967894172710634 -0.31604656121207597
@c -3.0690616413876866 -0.712820191839914 -0.31604656121207597
@c -3.1336895384514554 -0.40876984140143363 -0.31604656121207597
@c -3.1336895384514554 -0.09792682526523569 -0.31604656121207597
@c -3.0690616413876866 0.206123525173246 -0.31604656121207597
@c -2.9426303964808924 0.4900927506043955 -0.31604656121207597
@c -2.759921455817924 0.7415700332413454 -0.31604656121207597
@c -2.5289200768405236 0.9495646091109753 -0.31604656121207597
@c -2.2597221282775997 1.1049861171790742 -0.31604656121207597
@c -1.964092852236429 1.2010418917479253 -0.31604656121207597
@c -1.6549526666666674 1.1353321168291841 -0.6182803711395237
@c -1.345942195929629 1.1005149986313247 -0.6182803711395237
@c -0.7891245679497417 -1.3390624283582655 -0.6182803711395237
@c -1.0524268005107 -1.5045061863944789 -0.6182803711395237
@c -1.3459421959296294 -1.6072116652979924 -0.6182803711395237
@c -1.6549526666666672 -1.6420287834958516 -0.6182803711395237
@c -1.9639631374037052 -1.6072116652979924 -0.6182803711395237
@c -2.2574785328226343 -1.504506186394479 -0.6182803711395237
@c -2.520780765383593 -1.3390624283582657 -0.6182803711395237
@c -2.7406667616915996 -1.119176432050259 -0.6182803711395237
@c -2.9061105197278128 -0.855874199489301 -0.6182803711395237
@c -3.008815998631326 -0.5623588040703725 -0.6182803711395237
@c -3.0436331168291852 -0.253348333333334 -0.6182803711395237
@c -3.0088159986313263 0.05566213740370335 -0.6182803711395237
@c -2.9061105197278128 0.3491775328226331 -0.6182803711395237
@c -2.7406667616915996 0.6124797653835912 -0.6182803711395237
@c -2.5207807653835927 0.8323657616915985 -0.6182803711395237
@c -2.2574785328226334 0.9978095197278121 -0.6182803711395237
@c -1.9639631374037063 1.1005149986313245 -0.6182803711395237
@c -1.6549526666666674 0.976438399816024 -0.8934923620097882
@c -1.3491171427629183 0.9378023881745234 -0.8934923620097882
@c -0.9321021614565358 -1.2482666999080125 -0.8934923620097882
@c -1.2022379756285084 -1.3967751204729362 -0.8934923620097882
@c -1.5008195188065758 -1.473437830772316 -0.8934923620097882
@c -1.8090858145267585 -1.4734378307723162 -0.8934923620097882
@c -2.107667357704826 -1.3967751204729362 -0.8934923620097882
@c -2.3778031718767982 -1.248266699908013 -0.8934923620097882
@c -2.6025196303482234 -1.0372438993174042 -0.8934923620097882
@c -2.7676969715840163 -0.7769660573497916 -0.8934923620097882
@c -2.8629564957545655 -0.4837873880509441 -0.8934923620097882
@c -2.8823126966162125 -0.17612938544862916 -0.8934923620097882
@c -2.824549352881693 0.12667666666666605 -0.8934923620097882
@c -2.693295947876565 0.4056043503977773 -0.8934923620097882
@c -2.496799615753557 0.6431276135516147 -0.8934923620097882
@c -2.2474069437229174 0.8243219959547681 -0.8934923620097882
@c -1.9607881905704172 0.9378023881745232 -0.8934923620097882
@c -1.6549526666666674 0.7637971013927669 -1.1296544492081868
@c -1.3406374415854085 0.7140144603827909 -1.1296544492081868
@c -0.8320647242223581 -0.8512114193019519 -1.1296544492081868
@c -1.0570895806980491 -1.0762362757776427 -1.1296544492081868
@c -1.3406374415854083 -1.2207111270494584 -1.1296544492081868
@c -1.6549526666666672 -1.2704937680594344 -1.1296544492081868
@c -1.9692678917479256 -1.2207111270494586 -1.1296544492081868
@c -2.2528157526352857 -1.0762362757776431 -1.1296544492081868
@c -2.4778406091109764 -0.8512114193019521 -1.1296544492081868
@c -2.622315460382792 -0.5676635584145927 -1.1296544492081868
@c -2.672098101392768 -0.2533483333333339 -1.1296544492081868
@c -2.6223154603827923 0.06096689174792491 -1.1296544492081868
@c -2.477840609110977 0.3445147526352843 -1.1296544492081868
@c -2.2528157526352857 0.5695396091109753 -1.1296544492081868
@c -1.9692678917479265 0.7140144603827909 -1.1296544492081868
@c -1.6549526666666674 0.5067016666666662 -1.3164452162927254
@c -1.3458124810969054 0.44099189174792497 -1.3164452162927254
@c -0.9967300585203048 -0.6333733333333336 -1.3164452162927254
@c -1.2082064856617731 -0.8682416999080124 -1.3164452162927254
@c -1.4969293860606294 -0.9967894172710626 -1.3164452162927254
@c -1.8129759472727052 -0.9967894172710626 -1.3164452162927254
@c -2.1016988476715612 -0.8682416999080125 -1.3164452162927254
@c -2.31317527481303 -0.633373333333334 -1.3164452162927254
@c -2.4108390332413236 -0.33279519183991435 -1.3164452162927254
@c -2.377803171876799 -0.018479966758655125 -1.3164452162927254
@c -2.2197798912707607 0.2552243840297166 -1.3164452162927254
@c -1.9640928522364294 0.4409918917479251 -1.3164452162927254
@c -1.6549526666666674 0.21638839981602398 -1.445701010420263
@c -1.353011714783628 0.10649088082459396 -1.445701010420263
@c -1.1923522899865533 -0.17177940563873056 -1.445701010420263
@c -1.2481487226686117 -0.48821669990801253 -1.445701010420263
@c -1.4942932418695927 -0.6947564751858645 -1.445701010420263
@c -1.8156120914637421 -0.6947564751858646 -1.445701010420263
@c -2.061756610664723 -0.4882166999080128 -1.445701010420263
@c -2.1175530433467817 -0.1717794056387308 -1.445701010420263
@c -1.956893618549707 0.10649088082459385 -1.445701010420263
@c -1.6549526666666674 -0.09445461632017396 -1.5117727331493125
@c -1.5173466712315353 -0.3327951918399136 -1.5117727331493125
@c -1.7925586621017995 -0.3327951918399137 -1.5117727331493125